
 ===================================================
  XFOIL Version 6.99
  Copyright (C) 2000   Mark Drela, Harold Youngren

  This software comes with ABSOLUTELY NO WARRANTY,
    subject to the GNU General Public License.

  Caveat computor
 ===================================================

 File  xfoil.def  not found

   QUIT    Exit program

  .OPER    Direct operating point(s)
  .MDES    Complex mapping design routine
  .QDES    Surface speed design routine
  .GDES    Geometry design routine

   SAVE f  Write airfoil to labeled coordinate file
   PSAV f  Write airfoil to plain coordinate file
   ISAV f  Write airfoil to ISES coordinate file
   MSAV f  Write airfoil to MSES coordinate file
   REVE    Reverse written-airfoil node ordering

   LOAD f  Read buffer airfoil from coordinate file
   NACA i  Set NACA 4,5-digit airfoil and buffer airfoil
   INTE    Set buffer airfoil by interpolating two airfoils
   NORM    Buffer airfoil normalization toggle
   XYCM rr Change CM reference location, currently  0.25000 0.00000

   BEND    Display structural properties of current airfoil

   PCOP    Set current-airfoil panel nodes directly from buffer airfoil points
   PANE    Set current-airfoil panel nodes ( 160 ) based on curvature
  .PPAR    Show/change paneling

  .PLOP    Plotting options

   WDEF f  Write  current-settings file
   RDEF f  Reread current-settings file
   NAME s  Specify new airfoil name
   NINC    Increment name version number

   Z       Zoom    | (available in all menus)
   U       Unzoom  | 

 XFOIL   c>  
 Labeled airfoil file.  Name:  NACA 4412 Airfoil M=4.0% P=40.0% T=12.0%        

 Number of input coordinate points: 200
 Counterclockwise ordering
 Max thickness =     0.120203  at x =   0.298
 Max camber    =     0.038157  at x =   0.422

  LE  x,y  =  -0.00030   0.00308  |   Chord =   1.00018
  TE  x,y  =   0.99988   0.00003  |

 Current airfoil nodes set from buffer airfoil nodes ( 200 )

 XFOIL   c>  
 Blunt trailing edge.  Gap =  0.00257

 Paneling parameters used...
   Number of panel nodes       160
   Panel bunching parameter    1.000
   TE/LE panel density ratio   0.150
   Refined-area/LE panel density ratio    0.200
   Top    side refined area x/c limits  1.000 1.000
   Bottom side refined area x/c limits  1.000 1.000

 XFOIL   c>   N    command not recognized.  Type a "?" for list

 XFOIL   c>   330  command not recognized.  Type a "?" for list

 XFOIL   c>  
 XFOIL   c>  
.OPERi   c>   Current iteration limit:          10

Enter new iteration limit   i>  
.OPERi   c>  
 XFOIL   c>  
 XFOIL   c>  
 XFOIL   c>  
.OPERi   c>  
.OPERi   c>  
.OPERi   c>  
 M  =    0.0000
 Re =     50000

.OPERv   c>  
 Polar  1 newly created for accumulation
 Airfoil archived with polar: NACA 4412 Airfoil M=4.0% P=40.0% T=12.0%        

Enter  polar save filename  OR  <return> for no file   s>  
 Polar save file will NOT be written

Enter  polar dump filename  OR  <return> for no file   s>  
 Polar dump file will NOT be written

 Polar accumulation enabled

.OPERva   c>   Calculating unit vorticity distributions ...
 Calculating wake trajectory ...
 Calculating source influence matrix ...

 Solving BL system ...

 Initializing BL ...
    side            1  ...
 MRCHUE: Inverse mode at  48     Hk =   3.800
 MRCHUE: Inverse mode at  49     Hk =   4.061
 MRCHUE: Inverse mode at  50     Hk =   4.316
 MRCHUE: Inverse mode at  51     Hk =   4.565
 MRCHUE: Inverse mode at  52     Hk =   4.809
 MRCHUE: Inverse mode at  53     Hk =   5.047
 MRCHUE: Inverse mode at  54     Hk =   5.281
 MRCHUE: Inverse mode at  55     Hk =   5.510
 MRCHUE: Inverse mode at  56     Hk =   5.736
 MRCHUE: Inverse mode at  57     Hk =   5.958
 MRCHUE: Inverse mode at  58     Hk =   6.177
 MRCHUE: Inverse mode at  59     Hk =   6.392
 MRCHUE: Inverse mode at  60     Hk =   6.605
 MRCHUE: Inverse mode at  61     Hk =   6.815
 MRCHUE: Inverse mode at  62     Hk =   7.023
 MRCHUE: Inverse mode at  63     Hk =   7.228
 MRCHUE: Inverse mode at  64     Hk =   7.431
 MRCHUE: Inverse mode at  65     Hk =   7.632
 MRCHUE: Inverse mode at  66     Hk =   7.831
 MRCHUE: Inverse mode at  67     Hk =   8.028
 MRCHUE: Inverse mode at  68     Hk =   8.224
 MRCHUE: Inverse mode at  69     Hk =   8.417
 MRCHUE: Inverse mode at  70     Hk =   8.609
 MRCHUE: Inverse mode at  71     Hk =   8.799
 MRCHUE: Inverse mode at  72     Hk =   8.988
 MRCHUE: Inverse mode at  73     Hk =   9.176
 MRCHUE: Inverse mode at  74     Hk =   9.361
 MRCHUE: Inverse mode at  75     Hk =   9.546
 MRCHUE: Inverse mode at  76     Hk =   9.729
 MRCHUE: Inverse mode at  77     Hk =   9.910
 MRCHUE: Inverse mode at  78     Hk =   9.944
 MRCHUE: Inverse mode at  79     Hk =   9.082
 MRCHUE: Inverse mode at  80     Hk =   8.407
 MRCHUE: Inverse mode at  81     Hk =   7.854
 MRCHUE: Inverse mode at  82     Hk =   7.394
 MRCHUE: Inverse mode at  83     Hk =   7.012
 MRCHUE: Inverse mode at  84     Hk =   6.701
 MRCHUE: Inverse mode at  85     Hk =   6.454
 MRCHUE: Inverse mode at  86     Hk =   6.320
    side            2  ...
 MRCHUE: Inverse mode at  72     Hk =   3.800
 MRCHUE: Inverse mode at  73     Hk =   3.925
 MRCHUE: Inverse mode at  74     Hk =   4.034
 MRCHUE: Inverse mode at  75     Hk =   4.127
 MRCHUE: Inverse mode at  76     Hk =   4.179
 MRCHUE: Inverse mode at  78     Hk =   4.721
 MRCHUE: Inverse mode at  79     Hk =   4.129
 MRCHUE: Inverse mode at  80     Hk =   3.704
 MRCHUE: Inverse mode at  81     Hk =   3.380
 MRCHUE: Inverse mode at  82     Hk =   3.123

 Side 1  free  transition at x/c =  0.8932   78
 Side 2 forced transition at x/c =  1.0000   76

   1   rms: 0.7075E+00   max: 0.3963E+01   D at   83  2   RLX: 0.143
       a =  2.000      CL =  0.8027
      Cm = -0.1724     CD =  0.01038   =>   CDf =  0.01033    CDp =  0.00005

 Side 1  free  transition at x/c =  0.8782   77
 Side 2 forced transition at x/c =  1.0000   76
 idif Ue xi dudx           1  0.17348786      2.26032734E-03   76.753418    
 Uenew xinew           2  1.83909386E-02  2.39610672E-04

   2   rms: 0.5232E+00   max: -.3417E+01   C at   76  2   RLX: 0.146
       a =  2.000      CL =  0.7304
      Cm = -0.1554     CD =  0.01319   =>   CDf =  0.01075    CDp =  0.00244

 Side 1  free  transition at x/c =  0.8679   76
 Side 2 forced transition at x/c =  1.0000   77

   3   rms: 0.3117E+00   max: 0.1704E+01   D at   85  2   RLX: 0.304
       a =  2.000      CL =  0.6708
      Cm = -0.1388     CD =  0.01818   =>   CDf =  0.01068    CDp =  0.00750

 Side 1  free  transition at x/c =  0.8605   75
 Side 2 forced transition at x/c =  1.0000   77

   4   rms: 0.3046E+00   max: -.1578E+01   C at   77  2   RLX: 0.317
       a =  2.000      CL =  0.5829
      Cm = -0.1212     CD =  0.02316   =>   CDf =  0.01075    CDp =  0.01241

 Side 1  free  transition at x/c =  0.8466   74
 Side 2 forced transition at x/c =  1.0000   77
 idif Ue xi dudx           1  0.25102964      3.10456753E-03   80.858170    
 Uenew xinew           2  9.36529636E-02  1.15823746E-03

   5   rms: 0.2075E+00   max: 0.8097E+00   D at   89  2   RLX: 0.647
       a =  2.000      CL =  0.4451
      Cm = -0.0942     CD =  0.03325   =>   CDf =  0.01098    CDp =  0.02227

 Side 1  free  transition at x/c =  0.8299   72
 Side 2 forced transition at x/c =  1.0000   78

   6   rms: 0.3878E-01   max: 0.2357E+00   T at   72  1
       a =  2.000      CL =  0.4045
      Cm = -0.0848     CD =  0.04066   =>   CDf =  0.01068    CDp =  0.02998

 Side 1  free  transition at x/c =  0.8225   72
 Side 2 forced transition at x/c =  1.0000   78

   7   rms: 0.2070E-01   max: -.6992E-01   D at   87  2
       a =  2.000      CL =  0.4219
      Cm = -0.0872     CD =  0.04027   =>   CDf =  0.01051    CDp =  0.02977

 Side 1  free  transition at x/c =  0.8237   72
 Side 2 forced transition at x/c =  1.0000   78

   8   rms: 0.1732E-02   max: -.5216E-02   D at   85  2
       a =  2.000      CL =  0.4235
      Cm = -0.0874     CD =  0.04034   =>   CDf =  0.01052    CDp =  0.02982

 Side 1  free  transition at x/c =  0.8239   72
 Side 2 forced transition at x/c =  1.0000   78

   9   rms: 0.4261E-04   max: -.1596E-03   D at   86  2
       a =  2.000      CL =  0.4236
      Cm = -0.0874     CD =  0.04034   =>   CDf =  0.01052    CDp =  0.02982
 plradd ia,ip,cpol            1          83  0.19364527    

 Point added to stored polar  1
 Save file unspecified or not available
 Dump file unspecified or not available

.OPERva   c>  
.OPERva   c>  
.OPERva   c>   Calculating wake trajectory ...
 Calculating source influence matrix ...

 Solving BL system ...

 Side 1  free  transition at x/c =  0.8239   72
 Side 2 forced transition at x/c =  1.0000   78
 idif Ue xi dudx           1  0.18714875      2.31921673E-03   80.694809    
 Uenew xinew           2  3.66313271E-02  4.53948975E-04

   1   rms: 0.1482E+00   max: -.1115E+01   T at   72  1   RLX: 0.448
       a =  1.000      CL =  0.3863
      Cm = -0.0876     CD =  0.03831   =>   CDf =  0.01068    CDp =  0.02763

 Side 1  free  transition at x/c =  0.8465   72
 Side 2 forced transition at x/c =  1.0000   79

   2   rms: 0.1288E+00   max: -.1145E+01   T at   72  1   RLX: 0.437
       a =  1.000      CL =  0.4287
      Cm = -0.0964     CD =  0.03631   =>   CDf =  0.01040    CDp =  0.02592

 Side 1  free  transition at x/c =  0.8695   74
 Side 2 forced transition at x/c =  1.0000   79
 idif Ue xi dudx           1  0.17679590      2.19178200E-03   80.663086    
 Uenew xinew           2  2.93377731E-02  3.63707542E-04

   3   rms: 0.1634E+00   max: 0.6523E+00   D at   74  1
       a =  1.000      CL =  0.3024
      Cm = -0.0824     CD =  0.03843   =>   CDf =  0.01057    CDp =  0.02786

 Side 1  free  transition at x/c =  0.8684   73
 Side 2 forced transition at x/c =  1.0000   80

   4   rms: 0.1380E-01   max: 0.1343E+00   C at   80  2
       a =  1.000      CL =  0.3097
      Cm = -0.0834     CD =  0.03673   =>   CDf =  0.01014    CDp =  0.02659

 Side 1  free  transition at x/c =  0.8688   73
 Side 2 forced transition at x/c =  1.0000   80

   5   rms: 0.7343E-03   max: 0.8718E-02   D at   87  2
       a =  1.000      CL =  0.3102
      Cm = -0.0835     CD =  0.03667   =>   CDf =  0.01013    CDp =  0.02654

 Side 1  free  transition at x/c =  0.8688   73
 Side 2 forced transition at x/c =  1.0000   80

   6   rms: 0.6294E-05   max: 0.3193E-04   D at    4  2
       a =  1.000      CL =  0.3102
      Cm = -0.0835     CD =  0.03667   =>   CDf =  0.01013    CDp =  0.02654
 plradd ia,ip,cpol            2          81  0.22333063    

 Point added to stored polar  1
 Save file unspecified or not available
 Dump file unspecified or not available

.OPERva   c>  
.OPERva   c>  
.OPERva   c>   Calculating wake trajectory ...
 Calculating source influence matrix ...

 Solving BL system ...

 Side 1  free  transition at x/c =  0.8688   73
 Side 2 forced transition at x/c =  1.0000   80
 idif Ue xi dudx           1  0.14689752      1.90591812E-03   77.074417    
 Uenew xinew           2  1.72734144E-03  2.24113464E-05

   1   rms: 0.1981E+00   max: -.2194E+00   T at   81  2   RLX: 0.500
       a =  0.000      CL =  0.2314
      Cm = -0.0781     CD =  0.03495   =>   CDf =  0.01023    CDp =  0.02471

 Side 1  free  transition at x/c =  0.8912   73
 Side 2 forced transition at x/c =  1.0000   81

   2   rms: 0.1109E+00   max: 0.1495E+01   D at    2  2   RLX: 0.681
       a =  0.000      CL =  0.2269
      Cm = -0.0816     CD =  0.03426   =>   CDf =  0.00976    CDp =  0.02450

 Side 1  free  transition at x/c =  0.9147   75
 Side 2 forced transition at x/c =  1.0000   81

   3   rms: 0.6358E-01   max: 0.1924E+00   D at   89  2
       a =  0.000      CL =  0.1743
      Cm = -0.0754     CD =  0.03357   =>   CDf =  0.00962    CDp =  0.02395

 Side 1  free  transition at x/c =  0.9165   75
 Side 2 forced transition at x/c =  1.0000   81

   4   rms: 0.4299E-02   max: -.1977E-01   D at   93  2
       a =  0.000      CL =  0.1776
      Cm = -0.0759     CD =  0.03319   =>   CDf =  0.00934    CDp =  0.02385

 Side 1  free  transition at x/c =  0.9169   75
 Side 2 forced transition at x/c =  1.0000   81

   5   rms: 0.4222E-04   max: -.2423E-03   D at   93  2
       a =  0.000      CL =  0.1776
      Cm = -0.0759     CD =  0.03320   =>   CDf =  0.00934    CDp =  0.02386
 plradd ia,ip,cpol            3          80  2.06547212E-02

 Point added to stored polar  1
 Save file unspecified or not available
 Dump file unspecified or not available

.OPERva   c>  
.OPERva   c>  
.OPERva   c>   Calculating wake trajectory ...
 Calculating source influence matrix ...

 Solving BL system ...

 Side 1  free  transition at x/c =  0.9169   75
 Side 2 forced transition at x/c =  1.0000   81
 idif Ue xi dudx           1  0.21894161      3.03363800E-03   72.171303    
 Uenew xinew           2  7.60806575E-02  1.05416775E-03

   1   rms: 0.2212E+00   max: -.1097E+01   T at   75  1   RLX: 0.456
       a = -1.000      CL =  0.0972
      Cm = -0.0690     CD =  0.03148   =>   CDf =  0.00940    CDp =  0.02207

 Side 1  free  transition at x/c =  0.9384   75
 Side 2 forced transition at x/c =  1.0000   82

   2   rms: 0.1102E+00   max: -.8775E+00   T at   75  1   RLX: 0.570
       a = -1.000      CL =  0.0735
      Cm = -0.0687     CD =  0.03133   =>   CDf =  0.00870    CDp =  0.02263

 Side 1  free  transition at x/c =  0.9599   77
 Side 2 forced transition at x/c =  1.0000   82
 idif Ue xi dudx           1  0.20170110      3.04627419E-03   66.212395    
 Uenew xinew           2  6.39185905E-02  9.65356827E-04

   3   rms: 0.1554E+00   max: 0.5485E+00   n at   77  2
       a = -1.000      CL = -0.0047
      Cm = -0.0578     CD =  0.02962   =>   CDf =  0.00832    CDp =  0.02130

 Side 1  free  transition at x/c =  0.9660   76
 Side 2  free  transition at x/c =  0.5519   56

   4   rms: 0.8189E-01   max: -.6706E+00   D at   61  2   RLX: 0.746
       a = -1.000      CL =  0.0226
      Cm = -0.0663     CD =  0.03243   =>   CDf =  0.00911    CDp =  0.02333

 Side 1  free  transition at x/c =  0.9670   76
 Side 2  free  transition at x/c =  0.5226   54

   5   rms: 0.3517E-01   max: -.3919E+00   D at   61  2
       a = -1.000      CL =  0.0312
      Cm = -0.0679     CD =  0.03236   =>   CDf =  0.00947    CDp =  0.02289

 Side 1  free  transition at x/c =  0.9662   76
 Side 2  free  transition at x/c =  0.4976   53

   6   rms: 0.1117E-01   max: -.1252E+00   D at   53  2
       a = -1.000      CL =  0.0308
      Cm = -0.0678     CD =  0.03258   =>   CDf =  0.00977    CDp =  0.02281

 Side 1  free  transition at x/c =  0.9659   76
 Side 2  free  transition at x/c =  0.4982   53

   7   rms: 0.6738E-03   max: -.6293E-02   D at   61  2
       a = -1.000      CL =  0.0307
      Cm = -0.0678     CD =  0.03259   =>   CDf =  0.00976    CDp =  0.02283

 Side 1  free  transition at x/c =  0.9659   76
 Side 2  free  transition at x/c =  0.4978   53

   8   rms: 0.5877E-05   max: -.6504E-04   D at   54  2
       a = -1.000      CL =  0.0307
      Cm = -0.0678     CD =  0.03259   =>   CDf =  0.00977    CDp =  0.02282
 plradd ia,ip,cpol            4          78  1.41412215E-02

 Point added to stored polar  1
 Save file unspecified or not available
 Dump file unspecified or not available

.OPERva   c>  
.OPERva   c>  
.OPERva   c>   Calculating wake trajectory ...
 Calculating source influence matrix ...

 Solving BL system ...

 Side 1  free  transition at x/c =  0.9659   76
 Side 2  free  transition at x/c =  0.4978   53

   1   rms: 0.4327E+00   max: 0.3306E+01   C at   53  2   RLX: 0.235
       a = -2.000      CL = -0.0025
      Cm = -0.0663     CD =  0.03314   =>   CDf =  0.00976    CDp =  0.02338

 MRCHDU: Convergence failed at  53  side 2    Res =  0.1487E+01
 Side 1  free  transition at x/c =  0.9767   77
 Side 2  free  transition at x/c =  0.4362   49
 idif Ue xi dudx           1  0.17062895      2.83098221E-03   60.271996    
 Uenew xinew           2  3.80157381E-02  6.30736351E-04

   2   rms: 0.3116E+00   max: 0.3140E+01   T at   49  2   RLX: 0.478
       a = -2.000      CL = -0.0865
      Cm = -0.0571     CD =  0.03197   =>   CDf =  0.00991    CDp =  0.02206

 MRCHDU: Convergence failed at  50  side 2    Res =  0.6683E+01
 MRCHDU: Convergence failed at  51  side 2    Res =  0.1546E+02
 MRCHDU: Convergence failed at  52  side 2    Res =  0.2142E+02
 MRCHDU: Convergence failed at  53  side 2    Res =  0.5218E+01
 MRCHDU: Convergence failed at  54  side 2    Res =  0.4583E+01
 MRCHDU: Convergence failed at  55  side 2    Res =  0.7190E+01
 MRCHDU: Convergence failed at  56  side 2    Res =  0.9792E+01
 MRCHDU: Convergence failed at  57  side 2    Res =  0.1030E+02
 MRCHDU: Convergence failed at  58  side 2    Res =  0.8858E+01
 MRCHDU: Convergence failed at  59  side 2    Res =  0.7648E+01
 MRCHDU: Convergence failed at  60  side 2    Res =  0.6943E+01
 MRCHDU: Convergence failed at  61  side 2    Res =  0.6491E+01
 MRCHDU: Convergence failed at  62  side 2    Res =  0.6139E+01
 MRCHDU: Convergence failed at  63  side 2    Res =  0.5855E+01
 MRCHDU: Convergence failed at  64  side 2    Res =  0.5628E+01
 MRCHDU: Convergence failed at  65  side 2    Res =  0.5460E+01
 MRCHDU: Convergence failed at  66  side 2    Res =  0.4920E+01
 MRCHDU: Convergence failed at  67  side 2    Res =  0.4848E+01
 MRCHDU: Convergence failed at  68  side 2    Res =  0.4706E+01
 MRCHDU: Convergence failed at  69  side 2    Res =  0.4574E+01
 MRCHDU: Convergence failed at  70  side 2    Res =  0.4500E+01
 MRCHDU: Convergence failed at  71  side 2    Res =  0.4366E+01
 MRCHDU: Convergence failed at  72  side 2    Res =  0.4292E+01
 MRCHDU: Convergence failed at  73  side 2    Res =  0.4212E+01
 MRCHDU: Convergence failed at  74  side 2    Res =  0.4116E+01
 MRCHDU: Convergence failed at  75  side 2    Res =  0.4018E+01
 MRCHDU: Convergence failed at  76  side 2    Res =  0.3920E+01
 MRCHDU: Convergence failed at  77  side 2    Res =  0.3801E+01
 MRCHDU: Convergence failed at  78  side 2    Res =  0.3684E+01
 MRCHDU: Convergence failed at  79  side 2    Res =  0.3558E+01
 MRCHDU: Convergence failed at  80  side 2    Res =  0.3431E+01
 MRCHDU: Convergence failed at  81  side 2    Res =  0.3300E+01
 MRCHDU: Convergence failed at  82  side 2    Res =  0.3176E+01
 MRCHDU: Convergence failed at  83  side 2    Res =  0.3067E+01
 Side 1  free  transition at x/c =  0.9931   77
 Side 2  free  transition at x/c =  0.3472   45

   3   rms: 0.2944E+00   max: 0.1214E+01   T at   45  2   RLX: 0.433
       a = -2.000      CL = -0.1594
      Cm = -0.0390     CD =  0.03564   =>   CDf =  0.00647    CDp =  0.02918

 Side 1 forced transition at x/c =  1.0000   78
 Side 2  free  transition at x/c =  0.3234   43

   4   rms: 0.1185E+00   max: 0.1360E+01   T at   43  2   RLX: 0.540
       a = -2.000      CL = -0.1509
      Cm = -0.0475     CD =  0.03329   =>   CDf =  0.00994    CDp =  0.02335

 Side 1 forced transition at x/c =  1.0000   78
 Side 2  free  transition at x/c =  0.2957   42

   5   rms: 0.1174E+00   max: -.6923E+00   D at   50  2   RLX: 0.722
       a = -2.000      CL = -0.1401
      Cm = -0.0531     CD =  0.03352   =>   CDf =  0.00965    CDp =  0.02386

 Side 1 forced transition at x/c =  1.0000   78
 Side 2  free  transition at x/c =  0.2911   42

   6   rms: 0.4945E-01   max: -.4114E+00   D at   51  2
       a = -2.000      CL = -0.1406
      Cm = -0.0539     CD =  0.03315   =>   CDf =  0.01010    CDp =  0.02306

 Side 1 forced transition at x/c =  1.0000   78
 Side 2  free  transition at x/c =  0.2878   41

   7   rms: 0.2634E-01   max: 0.2125E+00   D at   43  2
       a = -2.000      CL = -0.1449
      Cm = -0.0530     CD =  0.03367   =>   CDf =  0.01037    CDp =  0.02330

 Side 1 forced transition at x/c =  1.0000   78
 Side 2  free  transition at x/c =  0.2817   41

   8   rms: 0.5437E-02   max: -.3954E-01   D at   44  2
       a = -2.000      CL = -0.1442
      Cm = -0.0531     CD =  0.03356   =>   CDf =  0.01022    CDp =  0.02334

 Side 1 forced transition at x/c =  1.0000   78
 Side 2  free  transition at x/c =  0.2827   41

   9   rms: 0.1688E-03   max: -.8403E-03   D at   43  2
       a = -2.000      CL = -0.1441
      Cm = -0.0532     CD =  0.03357   =>   CDf =  0.01023    CDp =  0.02334

 Side 1 forced transition at x/c =  1.0000   78
 Side 2  free  transition at x/c =  0.2827   41

  10   rms: 0.1771E-05   max: -.1205E-04   D at   96  2
       a = -2.000      CL = -0.1441
      Cm = -0.0532     CD =  0.03357   =>   CDf =  0.01023    CDp =  0.02334
 plradd ia,ip,cpol            5          77  9.01244860E-03

 Point added to stored polar  1
 Save file unspecified or not available
 Dump file unspecified or not available

.OPERva   c>  
.OPERva   c>  
.OPERva   c>   Calculating wake trajectory ...
 Calculating source influence matrix ...

 Solving BL system ...

 Side 1 forced transition at x/c =  1.0000   78
 Side 2  free  transition at x/c =  0.2827   41
 idif Ue xi dudx           1  0.21735801      4.08387184E-03   53.223515    
 Uenew xinew           2  9.28552300E-02  1.74462795E-03

   1   rms: 0.1982E+00   max: 0.1993E+01   T at   41  2   RLX: 0.753
       a = -3.000      CL = -0.2107
      Cm = -0.0529     CD =  0.03427   =>   CDf =  0.01032    CDp =  0.02395

 MRCHDU: Convergence failed at  42  side 2    Res =  0.1822E+02
 MRCHDU: Convergence failed at  43  side 2    Res =  0.1275E+02
 MRCHDU: Convergence failed at  44  side 2    Res =  0.1351E+03
 MRCHDU: Convergence failed at  45  side 2    Res =  0.2905E+02
 MRCHDU: Convergence failed at  46  side 2    Res =  0.1877E+02
 MRCHDU: Convergence failed at  47  side 2    Res =  0.1558E+02
 MRCHDU: Convergence failed at  48  side 2    Res =  0.1377E+02
 MRCHDU: Convergence failed at  49  side 2    Res =  0.1238E+02
 MRCHDU: Convergence failed at  50  side 2    Res =  0.1527E+02
 MRCHDU: Convergence failed at  51  side 2    Res =  0.1729E+02
 MRCHDU: Convergence failed at  52  side 2    Res =  0.2063E+02
 MRCHDU: Convergence failed at  53  side 2    Res =  0.2421E+02
 MRCHDU: Convergence failed at  54  side 2    Res =  0.2875E+02
 MRCHDU: Convergence failed at  55  side 2    Res =  0.3414E+02
 MRCHDU: Convergence failed at  56  side 2    Res =  0.4075E+02
 MRCHDU: Convergence failed at  57  side 2    Res =  0.4922E+02
 MRCHDU: Convergence failed at  58  side 2    Res =  0.6070E+02
 MRCHDU: Convergence failed at  59  side 2    Res =  0.7556E+02
 MRCHDU: Convergence failed at  60  side 2    Res =  0.9166E+02
 MRCHDU: Convergence failed at  61  side 2    Res =  0.1159E+03
 MRCHDU: Convergence failed at  62  side 2    Res =  0.1451E+03
 MRCHDU: Convergence failed at  63  side 2    Res =  0.1927E+03
 MRCHDU: Convergence failed at  64  side 2    Res =  0.2600E+03
 MRCHDU: Convergence failed at  65  side 2    Res =  0.4248E+03
 MRCHDU: Convergence failed at  66  side 2    Res =  0.7929E+03
 MRCHDU: Convergence failed at  67  side 2    Res =  0.3823E+04
 MRCHDU: Convergence failed at  68  side 2    Res =  0.1408E+04
 MRCHDU: Convergence failed at  69  side 2    Res =  0.6114E+03
 MRCHDU: Convergence failed at  70  side 2    Res =  0.4010E+03
 MRCHDU: Convergence failed at  71  side 2    Res =  0.2928E+03
 MRCHDU: Convergence failed at  72  side 2    Res =  0.2337E+03
 MRCHDU: Convergence failed at  73  side 2    Res =  0.1924E+03
 MRCHDU: Convergence failed at  74  side 2    Res =  0.1623E+03
 MRCHDU: Convergence failed at  75  side 2    Res =  0.1399E+03
 MRCHDU: Convergence failed at  76  side 2    Res =  0.1214E+03
 MRCHDU: Convergence failed at  77  side 2    Res =  0.1065E+03
 MRCHDU: Convergence failed at  78  side 2    Res =  0.9357E+02
 MRCHDU: Convergence failed at  79  side 2    Res =  0.8238E+02
 MRCHDU: Convergence failed at  80  side 2    Res =  0.7276E+02
 MRCHDU: Convergence failed at  81  side 2    Res =  0.6436E+02
 MRCHDU: Convergence failed at  82  side 2    Res =  0.5660E+02
 MRCHDU: Convergence failed at  83  side 2    Res =  0.4992E+02
 MRCHDU: Convergence failed at  84  side 2    Res =  0.4431E+02
 MRCHDU: Convergence failed at  85  side 2    Res =  0.3807E+02
 Side 1 forced transition at x/c =  1.0000   77
 Side 2  free  transition at x/c =  0.2398   40

   2   rms: 0.3434E+00   max: 0.1724E+01   D at   94  2   RLX: 0.671
       a = -3.000      CL = -0.2458
      Cm =  0.0121     CD =  0.03816   =>   CDf =  0.00618    CDp =  0.03198

 MRCHDU: Convergence failed at  82  side 2    Res =  0.3041E-01
 MRCHDU: Convergence failed at  83  side 2    Res =  0.9323E-03
 MRCHDU: Convergence failed at  92  side 2    Res =  0.1476E+02
 MRCHDU: Convergence failed at  93  side 2    Res =  0.5006E+01
 MRCHDU: Convergence failed at  94  side 2    Res =  0.2943E+01
 MRCHDU: Convergence failed at  95  side 2    Res =  0.3659E+01
 MRCHDU: Convergence failed at  96  side 2    Res =  0.8820E+01
 MRCHDU: Convergence failed at  97  side 2    Res =  0.1741E+02
 MRCHDU: Convergence failed at  98  side 2    Res =  0.4281E+01
 MRCHDU: Convergence failed at  99  side 2    Res =  0.2492E+01
 Side 1 forced transition at x/c =  1.0000   78
 Side 2  free  transition at x/c =  0.2554   39

   3   rms: 0.3551E+00   max: -.1609E+01   D at   82  2   RLX: 0.311
       a = -3.000      CL = -0.0608
      Cm = -0.0811     CD =  0.06174   =>   CDf =  0.00698    CDp =  0.05476

 MRCHDU: Convergence failed at  82  side 2    Res =  0.2652E+00
 MRCHDU: Convergence failed at  83  side 2    Res =  0.6765E+00
 MRCHDU: Convergence failed at  84  side 2    Res =  0.1104E+00
 Side 1 forced transition at x/c =  1.0000   78
 Side 2  free  transition at x/c =  0.2621   40

   4   rms: 0.1597E+02   max: -.7873E+02   T at   40  2   RLX: 0.006
       a = -3.000      CL =  0.0356
      Cm = -0.0943     CD =  0.10515   =>   CDf =  0.00682    CDp =  0.09833

 Side 1 forced transition at x/c =  1.0000   78
 Side 2  free  transition at x/c =  0.2769   41

   5   rms: 0.5773E+02   max: 0.4012E+03   T at   41  2   RLX: 0.002
       a = -3.000      CL = -0.0171
      Cm = -0.1034     CD =  0.09417   =>   CDf =  0.00693    CDp =  0.08724

 Side 1 forced transition at x/c =  1.0000   78
 Side 2  free  transition at x/c =  0.2611   40
 idif Ue xi dudx           2  0.29269087      5.53452969E-03   52.884506    
 Uenew xinew           3  0.16898111      3.19528580E-03

   6   rms: 0.1890E+01   max: 0.1252E+02   T at   40  2   RLX: 0.120
       a = -3.000      CL = -0.1878
      Cm = -0.1015     CD =  0.06171   =>   CDf =  0.00682    CDp =  0.05489

 Side 1 forced transition at x/c =  1.0000   76
 Side 2  free  transition at x/c =  0.2257   40

   7   rms: 0.1649E+01   max: -.8395E+01   T at   40  2   RLX: 0.060
       a = -3.000      CL = -0.1368
      Cm = -0.0977     CD =  0.08252   =>   CDf =  0.00675    CDp =  0.07577

 Side 1 forced transition at x/c =  1.0000   77
 Side 2  free  transition at x/c =  0.2400   40

   8   rms: 0.5040E+01   max: -.2278E+02   T at   40  2   RLX: 0.022
       a = -3.000      CL = -0.0743
      Cm = -0.0921     CD =  0.09477   =>   CDf =  0.00664    CDp =  0.08813

 Side 1 forced transition at x/c =  1.0000   77
 Side 2  free  transition at x/c =  0.2547   40

   9   rms: 0.3199E+00   max: 0.2830E+01   T at   40  2   RLX: 0.318
       a = -3.000      CL = -0.1459
      Cm = -0.0634     CD =  0.08340   =>   CDf =  0.00671    CDp =  0.07668

 Side 1 forced transition at x/c =  1.0000   77
 Side 2  free  transition at x/c =  0.2427   40

  10   rms: 0.6960E+00   max: -.5268E+01   T at   40  2   RLX: 0.095
       a = -3.000      CL = -0.1096
      Cm = -0.0591     CD =  0.09588   =>   CDf =  0.00642    CDp =  0.08947

 Side 1 forced transition at x/c =  1.0000   78
 Side 2  free  transition at x/c =  0.2542   39
 idif Ue xi dudx           1  0.15950207      3.23081017E-03   49.369064    
 Uenew xinew           2  4.40157913E-02  8.91566277E-04

  11   rms: 0.3747E+00   max: 0.3437E+01   T at   39  2   RLX: 0.265
       a = -3.000      CL = -0.1976
      Cm = -0.0405     CD =  0.08296   =>   CDf =  0.00649    CDp =  0.07647

 Side 1 forced transition at x/c =  1.0000   77
 Side 2  free  transition at x/c =  0.2399   40

  12   rms: 0.4084E+00   max: -.3627E+01   T at   40  2   RLX: 0.138
       a = -3.000      CL = -0.2037
      Cm = -0.0307     CD =  0.09459   =>   CDf =  0.00625    CDp =  0.08834

 Side 1 forced transition at x/c =  1.0000   77
 Side 2  free  transition at x/c =  0.2463   40
 idif Ue xi dudx           1  0.13517883      2.80869007E-03   48.128784    
 Uenew xinew           2  1.48713365E-02  3.08990479E-04

  13   rms: 0.5832E+00   max: 0.5667E+01   T at   40  2   RLX: 0.265
       a = -3.000      CL = -0.3450
      Cm = -0.0175     CD =  0.08311   =>   CDf =  0.00627    CDp =  0.07684

 Side 1 forced transition at x/c =  1.0000   76
 Side 2  free  transition at x/c =  0.2208   39

  14   rms: 0.2781E+00   max: 0.1680E+01   T at   39  2   RLX: 0.524
       a = -3.000      CL = -0.4199
      Cm = -0.0110     CD =  0.06163   =>   CDf =  0.00596    CDp =  0.05566

 Side 1 forced transition at x/c =  1.0000   76
 Side 2  free  transition at x/c =  0.2085   39

  15   rms: 0.3086E+00   max: -.3353E+01   T at   39  2   RLX: 0.149
       a = -3.000      CL = -0.4117
      Cm = -0.0048     CD =  0.07864   =>   CDf =  0.00592    CDp =  0.07272

 Side 1 forced transition at x/c =  1.0000   76
 Side 2  free  transition at x/c =  0.2178   39

  16   rms: 0.2988E+00   max: 0.2427E+01   T at   39  2   RLX: 0.440
       a = -3.000      CL = -0.4244
      Cm = -0.0117     CD =  0.06173   =>   CDf =  0.00586    CDp =  0.05587

 Side 1 forced transition at x/c =  1.0000   76
 Side 2  free  transition at x/c =  0.2051   38

  17   rms: 0.2561E+00   max: 0.9356E+00   T at   38  2   RLX: 0.577
       a = -3.000      CL = -0.3894
      Cm = -0.0225     CD =  0.05259   =>   CDf =  0.00604    CDp =  0.04655

 Side 1 forced transition at x/c =  1.0000   76
 Side 2  free  transition at x/c =  0.2015   38

  18   rms: 0.2650E+00   max: -.8644E+00   D at   86  2   RLX: 0.578
       a = -3.000      CL = -0.3314
      Cm = -0.0386     CD =  0.04502   =>   CDf =  0.00655    CDp =  0.03846

 Side 1 forced transition at x/c =  1.0000   76
 Side 2  free  transition at x/c =  0.2033   38

  19   rms: 0.2212E+00   max: -.7639E+00   D at   55  2   RLX: 0.655
       a = -3.000      CL = -0.2703
      Cm = -0.0492     CD =  0.03753   =>   CDf =  0.00773    CDp =  0.02980

 Side 1 forced transition at x/c =  1.0000   76
 Side 2  free  transition at x/c =  0.2130   39

  20   rms: 0.3884E-01   max: 0.3272E+00   D at   39  2
       a = -3.000      CL = -0.2401
      Cm = -0.0510     CD =  0.03701   =>   CDf =  0.00915    CDp =  0.02786

 Side 1 forced transition at x/c =  1.0000   77
 Side 2  free  transition at x/c =  0.2191   38

  21   rms: 0.3790E-01   max: -.1707E+00   D at   42  2
       a = -3.000      CL = -0.2348
      Cm = -0.0522     CD =  0.03621   =>   CDf =  0.00946    CDp =  0.02675

 Side 1 forced transition at x/c =  1.0000   77
 Side 2  free  transition at x/c =  0.2208   38

  22   rms: 0.2237E-02   max: 0.2212E-01   D at   42  2
       a = -3.000      CL = -0.2345
      Cm = -0.0522     CD =  0.03629   =>   CDf =  0.00979    CDp =  0.02650

 Side 1 forced transition at x/c =  1.0000   77
 Side 2  free  transition at x/c =  0.2208   38

  23   rms: 0.4927E-04   max: 0.3247E-03   D at   94  2
       a = -3.000      CL = -0.2345
      Cm = -0.0522     CD =  0.03629   =>   CDf =  0.00978    CDp =  0.02651
 plradd ia,ip,cpol            6          76  6.89196121E-03

 Point added to stored polar  1
 Save file unspecified or not available
 Dump file unspecified or not available

.OPERva   c>  
.OPERva   c>  
.OPERva   c>   Calculating wake trajectory ...
 Calculating source influence matrix ...

 Solving BL system ...

 Side 1 forced transition at x/c =  1.0000   77
 Side 2  free  transition at x/c =  0.2208   38
 idif Ue xi dudx           1  0.18141244      3.89456749E-03   46.580894    
 Uenew xinew           2  6.49741963E-02  1.39486790E-03

   1   rms: 0.2878E+00   max: 0.1876E+01   T at   38  2   RLX: 0.551
       a = -4.000      CL = -0.3019
      Cm = -0.0483     CD =  0.04005   =>   CDf =  0.00984    CDp =  0.03021

 Side 1 forced transition at x/c =  1.0000   76
 Side 2  free  transition at x/c =  0.2042   38

   2   rms: 0.7479E-01   max: 0.7799E+00   T at   38  2
       a = -4.000      CL = -0.3524
      Cm = -0.0417     CD =  0.04636   =>   CDf =  0.00804    CDp =  0.03831

 Side 1 forced transition at x/c =  1.0000   76
 Side 2  free  transition at x/c =  0.1969   38
 idif Ue xi dudx           1  0.11969288      2.80189514E-03   42.718544    
 Uenew xinew           2  4.92948899E-03  1.15394592E-04

   3   rms: 0.1944E+00   max: 0.7773E+00   T at   38  2   RLX: 0.789
       a = -4.000      CL = -0.3312
      Cm = -0.0530     CD =  0.04031   =>   CDf =  0.00730    CDp =  0.03301

 Side 1 forced transition at x/c =  1.0000   75
 Side 2  free  transition at x/c =  0.1878   38

   4   rms: 0.3892E-01   max: -.1970E+00   D at   53  2
       a = -4.000      CL = -0.3295
      Cm = -0.0499     CD =  0.04249   =>   CDf =  0.00827    CDp =  0.03422

 Side 1 forced transition at x/c =  1.0000   76
 Side 2  free  transition at x/c =  0.1882   37

   5   rms: 0.9884E-02   max: 0.4815E-01   D at   42  2
       a = -4.000      CL = -0.3309
      Cm = -0.0491     CD =  0.04324   =>   CDf =  0.00865    CDp =  0.03459

 Side 1 forced transition at x/c =  1.0000   76
 Side 2  free  transition at x/c =  0.1885   37

   6   rms: 0.9744E-03   max: 0.1284E-01   D at    4  1
       a = -4.000      CL = -0.3309
      Cm = -0.0491     CD =  0.04319   =>   CDf =  0.00860    CDp =  0.03458

 Side 1 forced transition at x/c =  1.0000   76
 Side 2  free  transition at x/c =  0.1885   37

   7   rms: 0.4094E-05   max: 0.3517E-04   D at    6  1
       a = -4.000      CL = -0.3309
      Cm = -0.0491     CD =  0.04319   =>   CDf =  0.00860    CDp =  0.03458
 plradd ia,ip,cpol            7          75  6.89196121E-03

 Point added to stored polar  1
 Save file unspecified or not available
 Dump file unspecified or not available

.OPERva   c>  
.OPERva   c>  
.OPERva   c>   Calculating wake trajectory ...
 Calculating source influence matrix ...

 Solving BL system ...

 Side 1 forced transition at x/c =  1.0000   76
 Side 2  free  transition at x/c =  0.1885   37
 idif Ue xi dudx           1  0.20255388      5.05495071E-03   40.070396    
 Uenew xinew           2  9.49047357E-02  2.36845016E-03

   1   rms: 0.2820E+00   max: 0.9151E+00   D at   51  2
       a = -5.000      CL = -0.4460
      Cm = -0.0386     CD =  0.05827   =>   CDf =  0.00864    CDp =  0.04964

 Side 1 forced transition at x/c =  1.0000   75
 Side 2  free  transition at x/c =  0.2304   41

   2   rms: 0.1539E+00   max: 0.9937E+00   D at   41  2
       a = -5.000      CL = -0.4241
      Cm = -0.0401     CD =  0.06197   =>   CDf =  0.00717    CDp =  0.05480

 Side 1 forced transition at x/c =  1.0000   75
 Side 2  free  transition at x/c =  0.2053   39

   3   rms: 0.5659E-01   max: -.5466E+00   D at   40  2   RLX: 0.915
       a = -5.000      CL = -0.4288
      Cm = -0.0381     CD =  0.06199   =>   CDf =  0.00651    CDp =  0.05548

 Side 1 forced transition at x/c =  1.0000   75
 Side 2  free  transition at x/c =  0.2063   40

   4   rms: 0.2661E-01   max: 0.1291E+00   D at   55  2
       a = -5.000      CL = -0.4245
      Cm = -0.0378     CD =  0.06165   =>   CDf =  0.00704    CDp =  0.05461

 Side 1 forced transition at x/c =  1.0000   75
 Side 2  free  transition at x/c =  0.2063   40

   5   rms: 0.1899E-02   max: 0.1341E-01   T at   40  2
       a = -5.000      CL = -0.4256
      Cm = -0.0376     CD =  0.06145   =>   CDf =  0.00687    CDp =  0.05459

 Side 1 forced transition at x/c =  1.0000   75
 Side 2  free  transition at x/c =  0.2062   39

   6   rms: 0.2322E-02   max: 0.7454E-02   D at   40  2
       a = -5.000      CL = -0.4255
      Cm = -0.0376     CD =  0.06148   =>   CDf =  0.00691    CDp =  0.05457

 Side 1 forced transition at x/c =  1.0000   75
 Side 2  free  transition at x/c =  0.2063   40

   7   rms: 0.2024E-02   max: 0.8353E-02   T at   40  2
       a = -5.000      CL = -0.4254
      Cm = -0.0376     CD =  0.06148   =>   CDf =  0.00688    CDp =  0.05460

 Side 1 forced transition at x/c =  1.0000   75
 Side 2  free  transition at x/c =  0.2062   39

   8   rms: 0.2303E-02   max: 0.7336E-02   D at   40  2
       a = -5.000      CL = -0.4255
      Cm = -0.0376     CD =  0.06148   =>   CDf =  0.00691    CDp =  0.05457

 Side 1 forced transition at x/c =  1.0000   75
 Side 2  free  transition at x/c =  0.2063   40

   9   rms: 0.2031E-02   max: 0.8386E-02   T at   40  2
       a = -5.000      CL = -0.4254
      Cm = -0.0376     CD =  0.06148   =>   CDf =  0.00688    CDp =  0.05460

 Side 1 forced transition at x/c =  1.0000   75
 Side 2  free  transition at x/c =  0.2062   39

  10   rms: 0.2304E-02   max: 0.7342E-02   D at   40  2
       a = -5.000      CL = -0.4255
      Cm = -0.0376     CD =  0.06148   =>   CDf =  0.00691    CDp =  0.05457

 Side 1 forced transition at x/c =  1.0000   75
 Side 2  free  transition at x/c =  0.2063   40

  11   rms: 0.2030E-02   max: 0.8383E-02   T at   40  2
       a = -5.000      CL = -0.4254
      Cm = -0.0376     CD =  0.06148   =>   CDf =  0.00688    CDp =  0.05460

 Side 1 forced transition at x/c =  1.0000   75
 Side 2  free  transition at x/c =  0.2062   39

  12   rms: 0.2301E-02   max: 0.7336E-02   D at   40  2
       a = -5.000      CL = -0.4255
      Cm = -0.0376     CD =  0.06148   =>   CDf =  0.00691    CDp =  0.05457

 Side 1 forced transition at x/c =  1.0000   75
 Side 2  free  transition at x/c =  0.2063   40

  13   rms: 0.2029E-02   max: 0.8382E-02   T at   40  2
       a = -5.000      CL = -0.4254
      Cm = -0.0376     CD =  0.06148   =>   CDf =  0.00688    CDp =  0.05460

 Side 1 forced transition at x/c =  1.0000   75
 Side 2  free  transition at x/c =  0.2062   39

  14   rms: 0.2303E-02   max: 0.7341E-02   D at   40  2
       a = -5.000      CL = -0.4255
      Cm = -0.0376     CD =  0.06148   =>   CDf =  0.00691    CDp =  0.05457

 Side 1 forced transition at x/c =  1.0000   75
 Side 2  free  transition at x/c =  0.2063   40

  15   rms: 0.2025E-02   max: 0.8370E-02   T at   40  2
       a = -5.000      CL = -0.4254
      Cm = -0.0376     CD =  0.06148   =>   CDf =  0.00688    CDp =  0.05460

 Side 1 forced transition at x/c =  1.0000   75
 Side 2  free  transition at x/c =  0.2062   39

  16   rms: 0.2303E-02   max: 0.7340E-02   D at   40  2
       a = -5.000      CL = -0.4255
      Cm = -0.0376     CD =  0.06148   =>   CDf =  0.00691    CDp =  0.05457

 Side 1 forced transition at x/c =  1.0000   75
 Side 2  free  transition at x/c =  0.2063   40

  17   rms: 0.2027E-02   max: 0.8375E-02   T at   40  2
       a = -5.000      CL = -0.4254
      Cm = -0.0376     CD =  0.06148   =>   CDf =  0.00688    CDp =  0.05460

 Side 1 forced transition at x/c =  1.0000   75
 Side 2  free  transition at x/c =  0.2062   39

  18   rms: 0.2303E-02   max: 0.7339E-02   D at   40  2
       a = -5.000      CL = -0.4255
      Cm = -0.0376     CD =  0.06148   =>   CDf =  0.00691    CDp =  0.05457

 Side 1 forced transition at x/c =  1.0000   75
 Side 2  free  transition at x/c =  0.2063   40

  19   rms: 0.2025E-02   max: 0.8373E-02   T at   40  2
       a = -5.000      CL = -0.4254
      Cm = -0.0376     CD =  0.06148   =>   CDf =  0.00688    CDp =  0.05460

 Side 1 forced transition at x/c =  1.0000   75
 Side 2  free  transition at x/c =  0.2062   39

  20   rms: 0.2304E-02   max: 0.7345E-02   D at   40  2
       a = -5.000      CL = -0.4255
      Cm = -0.0376     CD =  0.06148   =>   CDf =  0.00691    CDp =  0.05457

 Side 1 forced transition at x/c =  1.0000   75
 Side 2  free  transition at x/c =  0.2063   40

  21   rms: 0.2031E-02   max: 0.8384E-02   T at   40  2
       a = -5.000      CL = -0.4254
      Cm = -0.0376     CD =  0.06148   =>   CDf =  0.00688    CDp =  0.05460

 Side 1 forced transition at x/c =  1.0000   75
 Side 2  free  transition at x/c =  0.2062   39

  22   rms: 0.2303E-02   max: 0.7338E-02   D at   40  2
       a = -5.000      CL = -0.4255
      Cm = -0.0376     CD =  0.06148   =>   CDf =  0.00691    CDp =  0.05457

 Side 1 forced transition at x/c =  1.0000   75
 Side 2  free  transition at x/c =  0.2063   40

  23   rms: 0.2025E-02   max: 0.8366E-02   T at   40  2
       a = -5.000      CL = -0.4254
      Cm = -0.0376     CD =  0.06148   =>   CDf =  0.00688    CDp =  0.05460

 Side 1 forced transition at x/c =  1.0000   75
 Side 2  free  transition at x/c =  0.2062   39

  24   rms: 0.2301E-02   max: 0.7332E-02   D at   40  2
       a = -5.000      CL = -0.4255
      Cm = -0.0376     CD =  0.06148   =>   CDf =  0.00691    CDp =  0.05457

 Side 1 forced transition at x/c =  1.0000   75
 Side 2  free  transition at x/c =  0.2063   40

  25   rms: 0.2029E-02   max: 0.8383E-02   T at   40  2
       a = -5.000      CL = -0.4254
      Cm = -0.0376     CD =  0.06148   =>   CDf =  0.00688    CDp =  0.05460

 Side 1 forced transition at x/c =  1.0000   75
 Side 2  free  transition at x/c =  0.2062   39

  26   rms: 0.2303E-02   max: 0.7339E-02   D at   40  2
       a = -5.000      CL = -0.4255
      Cm = -0.0376     CD =  0.06148   =>   CDf =  0.00691    CDp =  0.05457

 Side 1 forced transition at x/c =  1.0000   75
 Side 2  free  transition at x/c =  0.2063   40

  27   rms: 0.2031E-02   max: 0.8389E-02   T at   40  2
       a = -5.000      CL = -0.4254
      Cm = -0.0376     CD =  0.06148   =>   CDf =  0.00688    CDp =  0.05460

 Side 1 forced transition at x/c =  1.0000   75
 Side 2  free  transition at x/c =  0.2062   39

  28   rms: 0.2304E-02   max: 0.7344E-02   D at   40  2
       a = -5.000      CL = -0.4255
      Cm = -0.0376     CD =  0.06148   =>   CDf =  0.00691    CDp =  0.05457

 Side 1 forced transition at x/c =  1.0000   75
 Side 2  free  transition at x/c =  0.2063   40

  29   rms: 0.2031E-02   max: 0.8388E-02   T at   40  2
       a = -5.000      CL = -0.4254
      Cm = -0.0376     CD =  0.06148   =>   CDf =  0.00688    CDp =  0.05460

 Side 1 forced transition at x/c =  1.0000   75
 Side 2  free  transition at x/c =  0.2062   39

  30   rms: 0.2302E-02   max: 0.7335E-02   D at   40  2
       a = -5.000      CL = -0.4255
      Cm = -0.0376     CD =  0.06148   =>   CDf =  0.00691    CDp =  0.05457

 Side 1 forced transition at x/c =  1.0000   75
 Side 2  free  transition at x/c =  0.2063   40

  31   rms: 0.2028E-02   max: 0.8378E-02   T at   40  2
       a = -5.000      CL = -0.4254
      Cm = -0.0376     CD =  0.06148   =>   CDf =  0.00688    CDp =  0.05460

 Side 1 forced transition at x/c =  1.0000   75
 Side 2  free  transition at x/c =  0.2062   39

  32   rms: 0.2302E-02   max: 0.7338E-02   D at   40  2
       a = -5.000      CL = -0.4255
      Cm = -0.0376     CD =  0.06148   =>   CDf =  0.00691    CDp =  0.05457

 Side 1 forced transition at x/c =  1.0000   75
 Side 2  free  transition at x/c =  0.2063   40

  33   rms: 0.2031E-02   max: 0.8395E-02   T at   40  2
       a = -5.000      CL = -0.4254
      Cm = -0.0376     CD =  0.06148   =>   CDf =  0.00688    CDp =  0.05460

 Side 1 forced transition at x/c =  1.0000   75
 Side 2  free  transition at x/c =  0.2062   39

  34   rms: 0.2305E-02   max: 0.7347E-02   D at   40  2
       a = -5.000      CL = -0.4255
      Cm = -0.0376     CD =  0.06148   =>   CDf =  0.00691    CDp =  0.05457

 Side 1 forced transition at x/c =  1.0000   75
 Side 2  free  transition at x/c =  0.2063   40

  35   rms: 0.2030E-02   max: 0.8384E-02   T at   40  2
       a = -5.000      CL = -0.4254
      Cm = -0.0376     CD =  0.06148   =>   CDf =  0.00688    CDp =  0.05460

 Side 1 forced transition at x/c =  1.0000   75
 Side 2  free  transition at x/c =  0.2062   39

  36   rms: 0.2303E-02   max: 0.7342E-02   D at   40  2
       a = -5.000      CL = -0.4255
      Cm = -0.0376     CD =  0.06148   =>   CDf =  0.00691    CDp =  0.05457

 Side 1 forced transition at x/c =  1.0000   75
 Side 2  free  transition at x/c =  0.2063   40

  37   rms: 0.2022E-02   max: 0.8366E-02   T at   40  2
       a = -5.000      CL = -0.4255
      Cm = -0.0376     CD =  0.06148   =>   CDf =  0.00688    CDp =  0.05460

 Side 1 forced transition at x/c =  1.0000   75
 Side 2  free  transition at x/c =  0.2062   39

  38   rms: 0.2305E-02   max: 0.7346E-02   D at   40  2
       a = -5.000      CL = -0.4255
      Cm = -0.0376     CD =  0.06148   =>   CDf =  0.00691    CDp =  0.05457

 Side 1 forced transition at x/c =  1.0000   75
 Side 2  free  transition at x/c =  0.2063   40

  39   rms: 0.2028E-02   max: 0.8375E-02   T at   40  2
       a = -5.000      CL = -0.4254
      Cm = -0.0376     CD =  0.06148   =>   CDf =  0.00688    CDp =  0.05460

 Side 1 forced transition at x/c =  1.0000   75
 Side 2  free  transition at x/c =  0.2062   39

  40   rms: 0.2302E-02   max: 0.7335E-02   D at   40  2
       a = -5.000      CL = -0.4255
      Cm = -0.0376     CD =  0.06148   =>   CDf =  0.00691    CDp =  0.05457

 Side 1 forced transition at x/c =  1.0000   75
 Side 2  free  transition at x/c =  0.2063   40

  41   rms: 0.2023E-02   max: 0.8375E-02   T at   40  2
       a = -5.000      CL = -0.4254
      Cm = -0.0376     CD =  0.06148   =>   CDf =  0.00688    CDp =  0.05460

 Side 1 forced transition at x/c =  1.0000   75
 Side 2  free  transition at x/c =  0.2062   39

  42   rms: 0.2303E-02   max: 0.7341E-02   D at   40  2
       a = -5.000      CL = -0.4255
      Cm = -0.0376     CD =  0.06148   =>   CDf =  0.00691    CDp =  0.05457

 Side 1 forced transition at x/c =  1.0000   75
 Side 2  free  transition at x/c =  0.2063   40

  43   rms: 0.2028E-02   max: 0.8374E-02   T at   40  2
       a = -5.000      CL = -0.4254
      Cm = -0.0376     CD =  0.06148   =>   CDf =  0.00688    CDp =  0.05460

 Side 1 forced transition at x/c =  1.0000   75
 Side 2  free  transition at x/c =  0.2062   39

  44   rms: 0.2302E-02   max: 0.7336E-02   D at   40  2
       a = -5.000      CL = -0.4255
      Cm = -0.0376     CD =  0.06148   =>   CDf =  0.00691    CDp =  0.05457

 Side 1 forced transition at x/c =  1.0000   75
 Side 2  free  transition at x/c =  0.2063   40

  45   rms: 0.2026E-02   max: 0.8380E-02   T at   40  2
       a = -5.000      CL = -0.4254
      Cm = -0.0376     CD =  0.06148   =>   CDf =  0.00688    CDp =  0.05460

 Side 1 forced transition at x/c =  1.0000   75
 Side 2  free  transition at x/c =  0.2062   39

  46   rms: 0.2303E-02   max: 0.7341E-02   D at   40  2
       a = -5.000      CL = -0.4255
      Cm = -0.0376     CD =  0.06148   =>   CDf =  0.00691    CDp =  0.05457

 Side 1 forced transition at x/c =  1.0000   75
 Side 2  free  transition at x/c =  0.2063   40

  47   rms: 0.2021E-02   max: 0.8362E-02   T at   40  2
       a = -5.000      CL = -0.4254
      Cm = -0.0376     CD =  0.06148   =>   CDf =  0.00688    CDp =  0.05460

 Side 1 forced transition at x/c =  1.0000   75
 Side 2  free  transition at x/c =  0.2062   39

  48   rms: 0.2304E-02   max: 0.7343E-02   D at   40  2
       a = -5.000      CL = -0.4255
      Cm = -0.0376     CD =  0.06148   =>   CDf =  0.00691    CDp =  0.05457

 Side 1 forced transition at x/c =  1.0000   75
 Side 2  free  transition at x/c =  0.2063   40

  49   rms: 0.2027E-02   max: 0.8374E-02   T at   40  2
       a = -5.000      CL = -0.4254
      Cm = -0.0376     CD =  0.06148   =>   CDf =  0.00688    CDp =  0.05460

 Side 1 forced transition at x/c =  1.0000   75
 Side 2  free  transition at x/c =  0.2062   39

  50   rms: 0.2303E-02   max: 0.7343E-02   D at   40  2
       a = -5.000      CL = -0.4255
      Cm = -0.0376     CD =  0.06148   =>   CDf =  0.00691    CDp =  0.05457

 Side 1 forced transition at x/c =  1.0000   75
 Side 2  free  transition at x/c =  0.2063   40

  51   rms: 0.2026E-02   max: 0.8376E-02   T at   40  2
       a = -5.000      CL = -0.4254
      Cm = -0.0376     CD =  0.06148   =>   CDf =  0.00688    CDp =  0.05460

 Side 1 forced transition at x/c =  1.0000   75
 Side 2  free  transition at x/c =  0.2062   39

  52   rms: 0.2302E-02   max: 0.7337E-02   D at   40  2
       a = -5.000      CL = -0.4255
      Cm = -0.0376     CD =  0.06148   =>   CDf =  0.00691    CDp =  0.05457

 Side 1 forced transition at x/c =  1.0000   75
 Side 2  free  transition at x/c =  0.2063   40

  53   rms: 0.2030E-02   max: 0.8384E-02   T at   40  2
       a = -5.000      CL = -0.4254
      Cm = -0.0376     CD =  0.06148   =>   CDf =  0.00688    CDp =  0.05460

 Side 1 forced transition at x/c =  1.0000   75
 Side 2  free  transition at x/c =  0.2062   39

  54   rms: 0.2303E-02   max: 0.7337E-02   D at   40  2
       a = -5.000      CL = -0.4255
      Cm = -0.0376     CD =  0.06148   =>   CDf =  0.00691    CDp =  0.05457

 Side 1 forced transition at x/c =  1.0000   75
 Side 2  free  transition at x/c =  0.2063   40

  55   rms: 0.2027E-02   max: 0.8378E-02   T at   40  2
       a = -5.000      CL = -0.4254
      Cm = -0.0376     CD =  0.06148   =>   CDf =  0.00688    CDp =  0.05460

 Side 1 forced transition at x/c =  1.0000   75
 Side 2  free  transition at x/c =  0.2062   39

  56   rms: 0.2304E-02   max: 0.7342E-02   D at   40  2
       a = -5.000      CL = -0.4255
      Cm = -0.0376     CD =  0.06148   =>   CDf =  0.00691    CDp =  0.05457

 Side 1 forced transition at x/c =  1.0000   75
 Side 2  free  transition at x/c =  0.2063   40

  57   rms: 0.2028E-02   max: 0.8381E-02   T at   40  2
       a = -5.000      CL = -0.4254
      Cm = -0.0376     CD =  0.06148   =>   CDf =  0.00688    CDp =  0.05460

 Side 1 forced transition at x/c =  1.0000   75
 Side 2  free  transition at x/c =  0.2062   39

  58   rms: 0.2304E-02   max: 0.7345E-02   D at   40  2
       a = -5.000      CL = -0.4255
      Cm = -0.0376     CD =  0.06148   =>   CDf =  0.00691    CDp =  0.05457

 Side 1 forced transition at x/c =  1.0000   75
 Side 2  free  transition at x/c =  0.2063   40

  59   rms: 0.2024E-02   max: 0.8374E-02   T at   40  2
       a = -5.000      CL = -0.4254
      Cm = -0.0376     CD =  0.06148   =>   CDf =  0.00688    CDp =  0.05460

 Side 1 forced transition at x/c =  1.0000   75
 Side 2  free  transition at x/c =  0.2062   39

  60   rms: 0.2303E-02   max: 0.7343E-02   D at   40  2
       a = -5.000      CL = -0.4255
      Cm = -0.0376     CD =  0.06148   =>   CDf =  0.00691    CDp =  0.05457

 Side 1 forced transition at x/c =  1.0000   75
 Side 2  free  transition at x/c =  0.2063   40

  61   rms: 0.2027E-02   max: 0.8382E-02   T at   40  2
       a = -5.000      CL = -0.4254
      Cm = -0.0376     CD =  0.06148   =>   CDf =  0.00688    CDp =  0.05460

 Side 1 forced transition at x/c =  1.0000   75
 Side 2  free  transition at x/c =  0.2062   39

  62   rms: 0.2305E-02   max: 0.7341E-02   D at   40  2
       a = -5.000      CL = -0.4255
      Cm = -0.0376     CD =  0.06148   =>   CDf =  0.00691    CDp =  0.05457

 Side 1 forced transition at x/c =  1.0000   75
 Side 2  free  transition at x/c =  0.2063   40

  63   rms: 0.2029E-02   max: 0.8392E-02   T at   40  2
       a = -5.000      CL = -0.4254
      Cm = -0.0376     CD =  0.06148   =>   CDf =  0.00688    CDp =  0.05460

 Side 1 forced transition at x/c =  1.0000   75
 Side 2  free  transition at x/c =  0.2062   39

  64   rms: 0.2304E-02   max: 0.7345E-02   D at   40  2
       a = -5.000      CL = -0.4255
      Cm = -0.0376     CD =  0.06148   =>   CDf =  0.00691    CDp =  0.05457

 Side 1 forced transition at x/c =  1.0000   75
 Side 2  free  transition at x/c =  0.2063   40

  65   rms: 0.2031E-02   max: 0.8388E-02   T at   40  2
       a = -5.000      CL = -0.4254
      Cm = -0.0376     CD =  0.06148   =>   CDf =  0.00688    CDp =  0.05460

 Side 1 forced transition at x/c =  1.0000   75
 Side 2  free  transition at x/c =  0.2062   39

  66   rms: 0.2305E-02   max: 0.7344E-02   D at   40  2
       a = -5.000      CL = -0.4255
      Cm = -0.0376     CD =  0.06148   =>   CDf =  0.00691    CDp =  0.05457

 Side 1 forced transition at x/c =  1.0000   75
 Side 2  free  transition at x/c =  0.2063   40

  67   rms: 0.2028E-02   max: 0.8382E-02   T at   40  2
       a = -5.000      CL = -0.4254
      Cm = -0.0376     CD =  0.06148   =>   CDf =  0.00688    CDp =  0.05460

 Side 1 forced transition at x/c =  1.0000   75
 Side 2  free  transition at x/c =  0.2062   39

  68   rms: 0.2302E-02   max: 0.7337E-02   D at   40  2
       a = -5.000      CL = -0.4255
      Cm = -0.0376     CD =  0.06148   =>   CDf =  0.00691    CDp =  0.05457

 Side 1 forced transition at x/c =  1.0000   75
 Side 2  free  transition at x/c =  0.2063   40

  69   rms: 0.2024E-02   max: 0.8371E-02   T at   40  2
       a = -5.000      CL = -0.4254
      Cm = -0.0376     CD =  0.06148   =>   CDf =  0.00688    CDp =  0.05460

 Side 1 forced transition at x/c =  1.0000   75
 Side 2  free  transition at x/c =  0.2062   39

  70   rms: 0.2304E-02   max: 0.7345E-02   D at   40  2
       a = -5.000      CL = -0.4255
      Cm = -0.0376     CD =  0.06148   =>   CDf =  0.00691    CDp =  0.05457

 Side 1 forced transition at x/c =  1.0000   75
 Side 2  free  transition at x/c =  0.2063   40

  71   rms: 0.2028E-02   max: 0.8383E-02   T at   40  2
       a = -5.000      CL = -0.4254
      Cm = -0.0376     CD =  0.06148   =>   CDf =  0.00688    CDp =  0.05460

 Side 1 forced transition at x/c =  1.0000   75
 Side 2  free  transition at x/c =  0.2062   39

  72   rms: 0.2305E-02   max: 0.7348E-02   D at   40  2
       a = -5.000      CL = -0.4255
      Cm = -0.0376     CD =  0.06148   =>   CDf =  0.00691    CDp =  0.05457

 Side 1 forced transition at x/c =  1.0000   75
 Side 2  free  transition at x/c =  0.2063   40

  73   rms: 0.2027E-02   max: 0.8380E-02   T at   40  2
       a = -5.000      CL = -0.4254
      Cm = -0.0376     CD =  0.06148   =>   CDf =  0.00688    CDp =  0.05460

 Side 1 forced transition at x/c =  1.0000   75
 Side 2  free  transition at x/c =  0.2062   39

  74   rms: 0.2304E-02   max: 0.7344E-02   D at   40  2
       a = -5.000      CL = -0.4255
      Cm = -0.0376     CD =  0.06148   =>   CDf =  0.00691    CDp =  0.05457

 Side 1 forced transition at x/c =  1.0000   75
 Side 2  free  transition at x/c =  0.2063   40

  75   rms: 0.2027E-02   max: 0.8382E-02   T at   40  2
       a = -5.000      CL = -0.4254
      Cm = -0.0376     CD =  0.06148   =>   CDf =  0.00688    CDp =  0.05460

 Side 1 forced transition at x/c =  1.0000   75
 Side 2  free  transition at x/c =  0.2062   39

  76   rms: 0.2304E-02   max: 0.7343E-02   D at   40  2
       a = -5.000      CL = -0.4255
      Cm = -0.0376     CD =  0.06148   =>   CDf =  0.00691    CDp =  0.05457

 Side 1 forced transition at x/c =  1.0000   75
 Side 2  free  transition at x/c =  0.2063   40

  77   rms: 0.2028E-02   max: 0.8382E-02   T at   40  2
       a = -5.000      CL = -0.4254
      Cm = -0.0376     CD =  0.06148   =>   CDf =  0.00688    CDp =  0.05460

 Side 1 forced transition at x/c =  1.0000   75
 Side 2  free  transition at x/c =  0.2062   39

  78   rms: 0.2305E-02   max: 0.7345E-02   D at   40  2
       a = -5.000      CL = -0.4255
      Cm = -0.0376     CD =  0.06148   =>   CDf =  0.00691    CDp =  0.05457

 Side 1 forced transition at x/c =  1.0000   75
 Side 2  free  transition at x/c =  0.2063   40

  79   rms: 0.2031E-02   max: 0.8382E-02   T at   40  2
       a = -5.000      CL = -0.4254
      Cm = -0.0376     CD =  0.06148   =>   CDf =  0.00688    CDp =  0.05460

 Side 1 forced transition at x/c =  1.0000   75
 Side 2  free  transition at x/c =  0.2062   39

  80   rms: 0.2301E-02   max: 0.7336E-02   D at   40  2
       a = -5.000      CL = -0.4255
      Cm = -0.0376     CD =  0.06148   =>   CDf =  0.00691    CDp =  0.05457

 Side 1 forced transition at x/c =  1.0000   75
 Side 2  free  transition at x/c =  0.2063   40

  81   rms: 0.2028E-02   max: 0.8382E-02   T at   40  2
       a = -5.000      CL = -0.4254
      Cm = -0.0376     CD =  0.06148   =>   CDf =  0.00688    CDp =  0.05460

 Side 1 forced transition at x/c =  1.0000   75
 Side 2  free  transition at x/c =  0.2062   39

  82   rms: 0.2303E-02   max: 0.7343E-02   D at   40  2
       a = -5.000      CL = -0.4255
      Cm = -0.0376     CD =  0.06148   =>   CDf =  0.00691    CDp =  0.05457

 Side 1 forced transition at x/c =  1.0000   75
 Side 2  free  transition at x/c =  0.2063   40

  83   rms: 0.2027E-02   max: 0.8382E-02   T at   40  2
       a = -5.000      CL = -0.4254
      Cm = -0.0376     CD =  0.06148   =>   CDf =  0.00688    CDp =  0.05460

 Side 1 forced transition at x/c =  1.0000   75
 Side 2  free  transition at x/c =  0.2062   39

  84   rms: 0.2304E-02   max: 0.7343E-02   D at   40  2
       a = -5.000      CL = -0.4255
      Cm = -0.0376     CD =  0.06148   =>   CDf =  0.00691    CDp =  0.05457

 Side 1 forced transition at x/c =  1.0000   75
 Side 2  free  transition at x/c =  0.2063   40

  85   rms: 0.2031E-02   max: 0.8387E-02   T at   40  2
       a = -5.000      CL = -0.4254
      Cm = -0.0376     CD =  0.06148   =>   CDf =  0.00688    CDp =  0.05460

 Side 1 forced transition at x/c =  1.0000   75
 Side 2  free  transition at x/c =  0.2062   39

  86   rms: 0.2303E-02   max: 0.7337E-02   D at   40  2
       a = -5.000      CL = -0.4255
      Cm = -0.0376     CD =  0.06148   =>   CDf =  0.00691    CDp =  0.05457

 Side 1 forced transition at x/c =  1.0000   75
 Side 2  free  transition at x/c =  0.2063   40

  87   rms: 0.2032E-02   max: 0.8392E-02   T at   40  2
       a = -5.000      CL = -0.4254
      Cm = -0.0376     CD =  0.06148   =>   CDf =  0.00688    CDp =  0.05460

 Side 1 forced transition at x/c =  1.0000   75
 Side 2  free  transition at x/c =  0.2062   39

  88   rms: 0.2304E-02   max: 0.7344E-02   D at   40  2
       a = -5.000      CL = -0.4255
      Cm = -0.0376     CD =  0.06148   =>   CDf =  0.00691    CDp =  0.05457

 Side 1 forced transition at x/c =  1.0000   75
 Side 2  free  transition at x/c =  0.2063   40

  89   rms: 0.2026E-02   max: 0.8378E-02   T at   40  2
       a = -5.000      CL = -0.4254
      Cm = -0.0376     CD =  0.06148   =>   CDf =  0.00688    CDp =  0.05460

 Side 1 forced transition at x/c =  1.0000   75
 Side 2  free  transition at x/c =  0.2062   39

  90   rms: 0.2304E-02   max: 0.7343E-02   D at   40  2
       a = -5.000      CL = -0.4255
      Cm = -0.0376     CD =  0.06148   =>   CDf =  0.00691    CDp =  0.05457

 Side 1 forced transition at x/c =  1.0000   75
 Side 2  free  transition at x/c =  0.2063   40

  91   rms: 0.2031E-02   max: 0.8389E-02   T at   40  2
       a = -5.000      CL = -0.4254
      Cm = -0.0376     CD =  0.06148   =>   CDf =  0.00688    CDp =  0.05460

 Side 1 forced transition at x/c =  1.0000   75
 Side 2  free  transition at x/c =  0.2062   39

  92   rms: 0.2304E-02   max: 0.7341E-02   D at   40  2
       a = -5.000      CL = -0.4255
      Cm = -0.0376     CD =  0.06148   =>   CDf =  0.00691    CDp =  0.05457

 Side 1 forced transition at x/c =  1.0000   75
 Side 2  free  transition at x/c =  0.2063   40

  93   rms: 0.2031E-02   max: 0.8394E-02   T at   40  2
       a = -5.000      CL = -0.4254
      Cm = -0.0376     CD =  0.06148   =>   CDf =  0.00688    CDp =  0.05460

 Side 1 forced transition at x/c =  1.0000   75
 Side 2  free  transition at x/c =  0.2062   39

  94   rms: 0.2304E-02   max: 0.7348E-02   D at   40  2
       a = -5.000      CL = -0.4255
      Cm = -0.0376     CD =  0.06148   =>   CDf =  0.00691    CDp =  0.05457

 Side 1 forced transition at x/c =  1.0000   75
 Side 2  free  transition at x/c =  0.2063   40

  95   rms: 0.2030E-02   max: 0.8382E-02   T at   40  2
       a = -5.000      CL = -0.4254
      Cm = -0.0376     CD =  0.06148   =>   CDf =  0.00688    CDp =  0.05460

 Side 1 forced transition at x/c =  1.0000   75
 Side 2  free  transition at x/c =  0.2062   39

  96   rms: 0.2302E-02   max: 0.7338E-02   D at   40  2
       a = -5.000      CL = -0.4255
      Cm = -0.0376     CD =  0.06148   =>   CDf =  0.00691    CDp =  0.05457

 Side 1 forced transition at x/c =  1.0000   75
 Side 2  free  transition at x/c =  0.2063   40

  97   rms: 0.2027E-02   max: 0.8377E-02   T at   40  2
       a = -5.000      CL = -0.4254
      Cm = -0.0376     CD =  0.06148   =>   CDf =  0.00688    CDp =  0.05460

 Side 1 forced transition at x/c =  1.0000   75
 Side 2  free  transition at x/c =  0.2062   39

  98   rms: 0.2300E-02   max: 0.7335E-02   D at   40  2
       a = -5.000      CL = -0.4255
      Cm = -0.0376     CD =  0.06148   =>   CDf =  0.00691    CDp =  0.05457

 Side 1 forced transition at x/c =  1.0000   75
 Side 2  free  transition at x/c =  0.2063   40

  99   rms: 0.2022E-02   max: 0.8366E-02   T at   40  2
       a = -5.000      CL = -0.4254
      Cm = -0.0376     CD =  0.06148   =>   CDf =  0.00688    CDp =  0.05460

 Side 1 forced transition at x/c =  1.0000   75
 Side 2  free  transition at x/c =  0.2062   39

 100   rms: 0.2303E-02   max: 0.7341E-02   D at   40  2
       a = -5.000      CL = -0.4255
      Cm = -0.0376     CD =  0.06148   =>   CDf =  0.00691    CDp =  0.05457

 Side 1 forced transition at x/c =  1.0000   75
 Side 2  free  transition at x/c =  0.2063   40

 101   rms: 0.2027E-02   max: 0.8379E-02   T at   40  2
       a = -5.000      CL = -0.4254
      Cm = -0.0376     CD =  0.06148   =>   CDf =  0.00688    CDp =  0.05460

 Side 1 forced transition at x/c =  1.0000   75
 Side 2  free  transition at x/c =  0.2062   39

 102   rms: 0.2304E-02   max: 0.7343E-02   D at   40  2
       a = -5.000      CL = -0.4255
      Cm = -0.0376     CD =  0.06148   =>   CDf =  0.00691    CDp =  0.05457

 Side 1 forced transition at x/c =  1.0000   75
 Side 2  free  transition at x/c =  0.2063   40

 103   rms: 0.2030E-02   max: 0.8385E-02   T at   40  2
       a = -5.000      CL = -0.4254
      Cm = -0.0376     CD =  0.06148   =>   CDf =  0.00688    CDp =  0.05460

 Side 1 forced transition at x/c =  1.0000   75
 Side 2  free  transition at x/c =  0.2062   39

 104   rms: 0.2305E-02   max: 0.7342E-02   D at   40  2
       a = -5.000      CL = -0.4255
      Cm = -0.0376     CD =  0.06148   =>   CDf =  0.00691    CDp =  0.05457

 Side 1 forced transition at x/c =  1.0000   75
 Side 2  free  transition at x/c =  0.2063   40

 105   rms: 0.2031E-02   max: 0.8388E-02   T at   40  2
       a = -5.000      CL = -0.4254
      Cm = -0.0376     CD =  0.06148   =>   CDf =  0.00688    CDp =  0.05460

 Side 1 forced transition at x/c =  1.0000   75
 Side 2  free  transition at x/c =  0.2062   39

 106   rms: 0.2301E-02   max: 0.7336E-02   D at   40  2
       a = -5.000      CL = -0.4255
      Cm = -0.0376     CD =  0.06148   =>   CDf =  0.00691    CDp =  0.05457

 Side 1 forced transition at x/c =  1.0000   75
 Side 2  free  transition at x/c =  0.2063   40

 107   rms: 0.2030E-02   max: 0.8386E-02   T at   40  2
       a = -5.000      CL = -0.4254
      Cm = -0.0376     CD =  0.06148   =>   CDf =  0.00688    CDp =  0.05460

 Side 1 forced transition at x/c =  1.0000   75
 Side 2  free  transition at x/c =  0.2062   39

 108   rms: 0.2303E-02   max: 0.7340E-02   D at   40  2
       a = -5.000      CL = -0.4255
      Cm = -0.0376     CD =  0.06148   =>   CDf =  0.00691    CDp =  0.05457

 Side 1 forced transition at x/c =  1.0000   75
 Side 2  free  transition at x/c =  0.2063   40

 109   rms: 0.2024E-02   max: 0.8372E-02   T at   40  2
       a = -5.000      CL = -0.4254
      Cm = -0.0376     CD =  0.06148   =>   CDf =  0.00688    CDp =  0.05460

 Side 1 forced transition at x/c =  1.0000   75
 Side 2  free  transition at x/c =  0.2062   39

 110   rms: 0.2302E-02   max: 0.7339E-02   D at   40  2
       a = -5.000      CL = -0.4255
      Cm = -0.0376     CD =  0.06148   =>   CDf =  0.00691    CDp =  0.05457

 Side 1 forced transition at x/c =  1.0000   75
 Side 2  free  transition at x/c =  0.2063   40

 111   rms: 0.2028E-02   max: 0.8382E-02   T at   40  2
       a = -5.000      CL = -0.4254
      Cm = -0.0376     CD =  0.06148   =>   CDf =  0.00688    CDp =  0.05460

 Side 1 forced transition at x/c =  1.0000   75
 Side 2  free  transition at x/c =  0.2062   39

 112   rms: 0.2305E-02   max: 0.7344E-02   D at   40  2
       a = -5.000      CL = -0.4255
      Cm = -0.0376     CD =  0.06148   =>   CDf =  0.00691    CDp =  0.05457

 Side 1 forced transition at x/c =  1.0000   75
 Side 2  free  transition at x/c =  0.2063   40

 113   rms: 0.2027E-02   max: 0.8374E-02   T at   40  2
       a = -5.000      CL = -0.4254
      Cm = -0.0376     CD =  0.06148   =>   CDf =  0.00688    CDp =  0.05460

 Side 1 forced transition at x/c =  1.0000   75
 Side 2  free  transition at x/c =  0.2062   39

 114   rms: 0.2301E-02   max: 0.7336E-02   D at   40  2
       a = -5.000      CL = -0.4255
      Cm = -0.0376     CD =  0.06148   =>   CDf =  0.00691    CDp =  0.05457

 Side 1 forced transition at x/c =  1.0000   75
 Side 2  free  transition at x/c =  0.2063   40

 115   rms: 0.2028E-02   max: 0.8378E-02   T at   40  2
       a = -5.000      CL = -0.4254
      Cm = -0.0376     CD =  0.06148   =>   CDf =  0.00688    CDp =  0.05460

 Side 1 forced transition at x/c =  1.0000   75
 Side 2  free  transition at x/c =  0.2062   39

 116   rms: 0.2303E-02   max: 0.7342E-02   D at   40  2
       a = -5.000      CL = -0.4255
      Cm = -0.0376     CD =  0.06148   =>   CDf =  0.00691    CDp =  0.05457

 Side 1 forced transition at x/c =  1.0000   75
 Side 2  free  transition at x/c =  0.2063   40

 117   rms: 0.2029E-02   max: 0.8382E-02   T at   40  2
       a = -5.000      CL = -0.4254
      Cm = -0.0376     CD =  0.06148   =>   CDf =  0.00688    CDp =  0.05460

 Side 1 forced transition at x/c =  1.0000   75
 Side 2  free  transition at x/c =  0.2062   39

 118   rms: 0.2301E-02   max: 0.7336E-02   D at   40  2
       a = -5.000      CL = -0.4255
      Cm = -0.0376     CD =  0.06148   =>   CDf =  0.00691    CDp =  0.05457

 Side 1 forced transition at x/c =  1.0000   75
 Side 2  free  transition at x/c =  0.2063   40

 119   rms: 0.2027E-02   max: 0.8376E-02   T at   40  2
       a = -5.000      CL = -0.4254
      Cm = -0.0376     CD =  0.06148   =>   CDf =  0.00688    CDp =  0.05460

 Side 1 forced transition at x/c =  1.0000   75
 Side 2  free  transition at x/c =  0.2062   39

 120   rms: 0.2305E-02   max: 0.7345E-02   D at   40  2
       a = -5.000      CL = -0.4255
      Cm = -0.0376     CD =  0.06148   =>   CDf =  0.00691    CDp =  0.05457

 Side 1 forced transition at x/c =  1.0000   75
 Side 2  free  transition at x/c =  0.2063   40

 121   rms: 0.2027E-02   max: 0.8380E-02   T at   40  2
       a = -5.000      CL = -0.4254
      Cm = -0.0376     CD =  0.06148   =>   CDf =  0.00688    CDp =  0.05460

 Side 1 forced transition at x/c =  1.0000   75
 Side 2  free  transition at x/c =  0.2062   39

 122   rms: 0.2304E-02   max: 0.7343E-02   D at   40  2
       a = -5.000      CL = -0.4255
      Cm = -0.0376     CD =  0.06148   =>   CDf =  0.00691    CDp =  0.05457

 Side 1 forced transition at x/c =  1.0000   75
 Side 2  free  transition at x/c =  0.2063   40

 123   rms: 0.2023E-02   max: 0.8368E-02   T at   40  2
       a = -5.000      CL = -0.4254
      Cm = -0.0376     CD =  0.06148   =>   CDf =  0.00688    CDp =  0.05460

 Side 1 forced transition at x/c =  1.0000   75
 Side 2  free  transition at x/c =  0.2062   39

 124   rms: 0.2303E-02   max: 0.7340E-02   D at   40  2
       a = -5.000      CL = -0.4255
      Cm = -0.0376     CD =  0.06148   =>   CDf =  0.00691    CDp =  0.05457

 Side 1 forced transition at x/c =  1.0000   75
 Side 2  free  transition at x/c =  0.2063   40

 125   rms: 0.2024E-02   max: 0.8364E-02   T at   40  2
       a = -5.000      CL = -0.4254
      Cm = -0.0376     CD =  0.06148   =>   CDf =  0.00688    CDp =  0.05460

 Side 1 forced transition at x/c =  1.0000   75
 Side 2  free  transition at x/c =  0.2062   39

 126   rms: 0.2300E-02   max: 0.7332E-02   D at   40  2
       a = -5.000      CL = -0.4255
      Cm = -0.0376     CD =  0.06148   =>   CDf =  0.00691    CDp =  0.05457

 Side 1 forced transition at x/c =  1.0000   75
 Side 2  free  transition at x/c =  0.2063   40

 127   rms: 0.2030E-02   max: 0.8387E-02   T at   40  2
       a = -5.000      CL = -0.4254
      Cm = -0.0376     CD =  0.06148   =>   CDf =  0.00688    CDp =  0.05460

 Side 1 forced transition at x/c =  1.0000   75
 Side 2  free  transition at x/c =  0.2062   39

 128   rms: 0.2304E-02   max: 0.7344E-02   D at   40  2
       a = -5.000      CL = -0.4255
      Cm = -0.0376     CD =  0.06148   =>   CDf =  0.00691    CDp =  0.05457

 Side 1 forced transition at x/c =  1.0000   75
 Side 2  free  transition at x/c =  0.2063   40

 129   rms: 0.2027E-02   max: 0.8371E-02   T at   40  2
       a = -5.000      CL = -0.4254
      Cm = -0.0376     CD =  0.06148   =>   CDf =  0.00688    CDp =  0.05460

 Side 1 forced transition at x/c =  1.0000   75
 Side 2  free  transition at x/c =  0.2062   39

 130   rms: 0.2303E-02   max: 0.7339E-02   D at   40  2
       a = -5.000      CL = -0.4255
      Cm = -0.0376     CD =  0.06148   =>   CDf =  0.00691    CDp =  0.05457

 Side 1 forced transition at x/c =  1.0000   75
 Side 2  free  transition at x/c =  0.2063   40

 131   rms: 0.2025E-02   max: 0.8369E-02   T at   40  2
       a = -5.000      CL = -0.4254
      Cm = -0.0376     CD =  0.06148   =>   CDf =  0.00688    CDp =  0.05460

 Side 1 forced transition at x/c =  1.0000   75
 Side 2  free  transition at x/c =  0.2062   39

 132   rms: 0.2304E-02   max: 0.7338E-02   D at   40  2
       a = -5.000      CL = -0.4255
      Cm = -0.0376     CD =  0.06148   =>   CDf =  0.00691    CDp =  0.05457

 Side 1 forced transition at x/c =  1.0000   75
 Side 2  free  transition at x/c =  0.2063   40

 133   rms: 0.2023E-02   max: 0.8367E-02   T at   40  2
       a = -5.000      CL = -0.4254
      Cm = -0.0376     CD =  0.06148   =>   CDf =  0.00688    CDp =  0.05460

 Side 1 forced transition at x/c =  1.0000   75
 Side 2  free  transition at x/c =  0.2062   39

 134   rms: 0.2304E-02   max: 0.7340E-02   D at   40  2
       a = -5.000      CL = -0.4255
      Cm = -0.0376     CD =  0.06148   =>   CDf =  0.00691    CDp =  0.05457

 Side 1 forced transition at x/c =  1.0000   75
 Side 2  free  transition at x/c =  0.2063   40

 135   rms: 0.2030E-02   max: 0.8384E-02   T at   40  2
       a = -5.000      CL = -0.4254
      Cm = -0.0376     CD =  0.06148   =>   CDf =  0.00688    CDp =  0.05460

 Side 1 forced transition at x/c =  1.0000   75
 Side 2  free  transition at x/c =  0.2062   39

 136   rms: 0.2304E-02   max: 0.7339E-02   D at   40  2
       a = -5.000      CL = -0.4255
      Cm = -0.0376     CD =  0.06148   =>   CDf =  0.00691    CDp =  0.05457

 Side 1 forced transition at x/c =  1.0000   75
 Side 2  free  transition at x/c =  0.2063   40

 137   rms: 0.2022E-02   max: 0.8361E-02   T at   40  2
       a = -5.000      CL = -0.4254
      Cm = -0.0376     CD =  0.06148   =>   CDf =  0.00688    CDp =  0.05460

 Side 1 forced transition at x/c =  1.0000   75
 Side 2  free  transition at x/c =  0.2062   39

 138   rms: 0.2305E-02   max: 0.7341E-02   D at   40  2
       a = -5.000      CL = -0.4255
      Cm = -0.0376     CD =  0.06148   =>   CDf =  0.00691    CDp =  0.05457

 Side 1 forced transition at x/c =  1.0000   75
 Side 2  free  transition at x/c =  0.2063   40

 139   rms: 0.2032E-02   max: 0.8393E-02   T at   40  2
       a = -5.000      CL = -0.4254
      Cm = -0.0376     CD =  0.06148   =>   CDf =  0.00688    CDp =  0.05460

 Side 1 forced transition at x/c =  1.0000   75
 Side 2  free  transition at x/c =  0.2062   39

 140   rms: 0.2302E-02   max: 0.7340E-02   D at   40  2
       a = -5.000      CL = -0.4255
      Cm = -0.0376     CD =  0.06148   =>   CDf =  0.00691    CDp =  0.05457

 Side 1 forced transition at x/c =  1.0000   75
 Side 2  free  transition at x/c =  0.2063   40

 141   rms: 0.2032E-02   max: 0.8390E-02   T at   40  2
       a = -5.000      CL = -0.4254
      Cm = -0.0376     CD =  0.06148   =>   CDf =  0.00688    CDp =  0.05460

 Side 1 forced transition at x/c =  1.0000   75
 Side 2  free  transition at x/c =  0.2062   39

 142   rms: 0.2302E-02   max: 0.7336E-02   D at   40  2
       a = -5.000      CL = -0.4255
      Cm = -0.0376     CD =  0.06148   =>   CDf =  0.00691    CDp =  0.05457

 Side 1 forced transition at x/c =  1.0000   75
 Side 2  free  transition at x/c =  0.2063   40

 143   rms: 0.2023E-02   max: 0.8367E-02   T at   40  2
       a = -5.000      CL = -0.4254
      Cm = -0.0376     CD =  0.06148   =>   CDf =  0.00688    CDp =  0.05460

 Side 1 forced transition at x/c =  1.0000   75
 Side 2  free  transition at x/c =  0.2062   39

 144   rms: 0.2303E-02   max: 0.7339E-02   D at   40  2
       a = -5.000      CL = -0.4255
      Cm = -0.0376     CD =  0.06148   =>   CDf =  0.00691    CDp =  0.05457

 Side 1 forced transition at x/c =  1.0000   75
 Side 2  free  transition at x/c =  0.2063   40

 145   rms: 0.2028E-02   max: 0.8379E-02   T at   40  2
       a = -5.000      CL = -0.4254
      Cm = -0.0376     CD =  0.06148   =>   CDf =  0.00688    CDp =  0.05460

 Side 1 forced transition at x/c =  1.0000   75
 Side 2  free  transition at x/c =  0.2062   39

 146   rms: 0.2303E-02   max: 0.7339E-02   D at   40  2
       a = -5.000      CL = -0.4255
      Cm = -0.0376     CD =  0.06148   =>   CDf =  0.00691    CDp =  0.05457

 Side 1 forced transition at x/c =  1.0000   75
 Side 2  free  transition at x/c =  0.2063   40

 147   rms: 0.2032E-02   max: 0.8398E-02   T at   40  2
       a = -5.000      CL = -0.4254
      Cm = -0.0376     CD =  0.06148   =>   CDf =  0.00688    CDp =  0.05460

 Side 1 forced transition at x/c =  1.0000   75
 Side 2  free  transition at x/c =  0.2062   39

 148   rms: 0.2304E-02   max: 0.7347E-02   D at   40  2
       a = -5.000      CL = -0.4255
      Cm = -0.0376     CD =  0.06148   =>   CDf =  0.00691    CDp =  0.05457

 Side 1 forced transition at x/c =  1.0000   75
 Side 2  free  transition at x/c =  0.2063   40

 149   rms: 0.2026E-02   max: 0.8382E-02   T at   40  2
       a = -5.000      CL = -0.4254
      Cm = -0.0376     CD =  0.06148   =>   CDf =  0.00688    CDp =  0.05460

 Side 1 forced transition at x/c =  1.0000   75
 Side 2  free  transition at x/c =  0.2062   39

 150   rms: 0.2303E-02   max: 0.7342E-02   D at   40  2
       a = -5.000      CL = -0.4255
      Cm = -0.0376     CD =  0.06148   =>   CDf =  0.00691    CDp =  0.05457

 Side 1 forced transition at x/c =  1.0000   75
 Side 2  free  transition at x/c =  0.2063   40

 151   rms: 0.2031E-02   max: 0.8390E-02   T at   40  2
       a = -5.000      CL = -0.4254
      Cm = -0.0376     CD =  0.06148   =>   CDf =  0.00688    CDp =  0.05460

 Side 1 forced transition at x/c =  1.0000   75
 Side 2  free  transition at x/c =  0.2062   39

 152   rms: 0.2304E-02   max: 0.7343E-02   D at   40  2
       a = -5.000      CL = -0.4255
      Cm = -0.0376     CD =  0.06148   =>   CDf =  0.00691    CDp =  0.05457

 Side 1 forced transition at x/c =  1.0000   75
 Side 2  free  transition at x/c =  0.2063   40

 153   rms: 0.2027E-02   max: 0.8372E-02   T at   40  2
       a = -5.000      CL = -0.4254
      Cm = -0.0376     CD =  0.06148   =>   CDf =  0.00688    CDp =  0.05460

 Side 1 forced transition at x/c =  1.0000   75
 Side 2  free  transition at x/c =  0.2062   39

 154   rms: 0.2300E-02   max: 0.7332E-02   D at   40  2
       a = -5.000      CL = -0.4255
      Cm = -0.0376     CD =  0.06148   =>   CDf =  0.00691    CDp =  0.05457

 Side 1 forced transition at x/c =  1.0000   75
 Side 2  free  transition at x/c =  0.2063   40

 155   rms: 0.2027E-02   max: 0.8381E-02   T at   40  2
       a = -5.000      CL = -0.4254
      Cm = -0.0376     CD =  0.06148   =>   CDf =  0.00688    CDp =  0.05460

 Side 1 forced transition at x/c =  1.0000   75
 Side 2  free  transition at x/c =  0.2062   39

 156   rms: 0.2304E-02   max: 0.7344E-02   D at   40  2
       a = -5.000      CL = -0.4255
      Cm = -0.0376     CD =  0.06148   =>   CDf =  0.00691    CDp =  0.05457

 Side 1 forced transition at x/c =  1.0000   75
 Side 2  free  transition at x/c =  0.2063   40

 157   rms: 0.2028E-02   max: 0.8382E-02   T at   40  2
       a = -5.000      CL = -0.4254
      Cm = -0.0376     CD =  0.06148   =>   CDf =  0.00688    CDp =  0.05460

 Side 1 forced transition at x/c =  1.0000   75
 Side 2  free  transition at x/c =  0.2062   39

 158   rms: 0.2304E-02   max: 0.7343E-02   D at   40  2
       a = -5.000      CL = -0.4255
      Cm = -0.0376     CD =  0.06148   =>   CDf =  0.00691    CDp =  0.05457

 Side 1 forced transition at x/c =  1.0000   75
 Side 2  free  transition at x/c =  0.2063   40

 159   rms: 0.2023E-02   max: 0.8369E-02   T at   40  2
       a = -5.000      CL = -0.4254
      Cm = -0.0376     CD =  0.06148   =>   CDf =  0.00688    CDp =  0.05460

 Side 1 forced transition at x/c =  1.0000   75
 Side 2  free  transition at x/c =  0.2062   39

 160   rms: 0.2304E-02   max: 0.7342E-02   D at   40  2
       a = -5.000      CL = -0.4255
      Cm = -0.0376     CD =  0.06148   =>   CDf =  0.00691    CDp =  0.05457

 Side 1 forced transition at x/c =  1.0000   75
 Side 2  free  transition at x/c =  0.2063   40

 161   rms: 0.2026E-02   max: 0.8375E-02   T at   40  2
       a = -5.000      CL = -0.4254
      Cm = -0.0376     CD =  0.06148   =>   CDf =  0.00688    CDp =  0.05460

 Side 1 forced transition at x/c =  1.0000   75
 Side 2  free  transition at x/c =  0.2062   39

 162   rms: 0.2302E-02   max: 0.7336E-02   D at   40  2
       a = -5.000      CL = -0.4255
      Cm = -0.0376     CD =  0.06148   =>   CDf =  0.00691    CDp =  0.05457

 Side 1 forced transition at x/c =  1.0000   75
 Side 2  free  transition at x/c =  0.2063   40

 163   rms: 0.2021E-02   max: 0.8360E-02   T at   40  2
       a = -5.000      CL = -0.4254
      Cm = -0.0376     CD =  0.06148   =>   CDf =  0.00688    CDp =  0.05460

 Side 1 forced transition at x/c =  1.0000   75
 Side 2  free  transition at x/c =  0.2062   39

 164   rms: 0.2303E-02   max: 0.7339E-02   D at   40  2
       a = -5.000      CL = -0.4255
      Cm = -0.0376     CD =  0.06148   =>   CDf =  0.00691    CDp =  0.05457

 Side 1 forced transition at x/c =  1.0000   75
 Side 2  free  transition at x/c =  0.2063   40

 165   rms: 0.2024E-02   max: 0.8370E-02   T at   40  2
       a = -5.000      CL = -0.4254
      Cm = -0.0376     CD =  0.06148   =>   CDf =  0.00688    CDp =  0.05460

 Side 1 forced transition at x/c =  1.0000   75
 Side 2  free  transition at x/c =  0.2062   39

 166   rms: 0.2305E-02   max: 0.7347E-02   D at   40  2
       a = -5.000      CL = -0.4255
      Cm = -0.0376     CD =  0.06148   =>   CDf =  0.00691    CDp =  0.05457

 Side 1 forced transition at x/c =  1.0000   75
 Side 2  free  transition at x/c =  0.2063   40

 167   rms: 0.2020E-02   max: 0.8357E-02   T at   40  2
       a = -5.000      CL = -0.4254
      Cm = -0.0376     CD =  0.06148   =>   CDf =  0.00688    CDp =  0.05460

 Side 1 forced transition at x/c =  1.0000   75
 Side 2  free  transition at x/c =  0.2062   39

 168   rms: 0.2304E-02   max: 0.7343E-02   D at   40  2
       a = -5.000      CL = -0.4255
      Cm = -0.0376     CD =  0.06148   =>   CDf =  0.00691    CDp =  0.05457

 Side 1 forced transition at x/c =  1.0000   75
 Side 2  free  transition at x/c =  0.2063   40

 169   rms: 0.2032E-02   max: 0.8388E-02   T at   40  2
       a = -5.000      CL = -0.4254
      Cm = -0.0376     CD =  0.06148   =>   CDf =  0.00688    CDp =  0.05460

 Side 1 forced transition at x/c =  1.0000   75
 Side 2  free  transition at x/c =  0.2062   39

 170   rms: 0.2304E-02   max: 0.7340E-02   D at   40  2
       a = -5.000      CL = -0.4255
      Cm = -0.0376     CD =  0.06148   =>   CDf =  0.00691    CDp =  0.05457

 Side 1 forced transition at x/c =  1.0000   75
 Side 2  free  transition at x/c =  0.2063   40

 171   rms: 0.2027E-02   max: 0.8380E-02   T at   40  2
       a = -5.000      CL = -0.4254
      Cm = -0.0376     CD =  0.06148   =>   CDf =  0.00688    CDp =  0.05460

 Side 1 forced transition at x/c =  1.0000   75
[...]
       a = -6.000      CL = -0.2229
      Cm = -0.0189     CD =  0.07983   =>   CDf =  0.00721    CDp =  0.07262

 Side 1 forced transition at x/c =  1.0000   77
 Side 2  free  transition at x/c =  0.3835   48
 idif Ue xi dudx           1  0.17033999      3.81004810E-03   44.708092    
 Uenew xinew           2  5.85831814E-02  1.31034851E-03

  31   rms: 0.1474E+00   max: 0.1039E+01   T at   48  2   RLX: 0.885
       a = -6.000      CL = -0.3108
      Cm = -0.0128     CD =  0.07734   =>   CDf =  0.00704    CDp =  0.07030

 Side 1 forced transition at x/c =  1.0000   76
 Side 2  free  transition at x/c =  0.3691   48

  32   rms: 0.8793E-01   max: 0.8113E+00   T at   48  2
       a = -6.000      CL = -0.3830
      Cm = -0.0038     CD =  0.08109   =>   CDf =  0.00657    CDp =  0.07452

 Side 1 forced transition at x/c =  1.0000   76
 Side 2  free  transition at x/c =  0.3413   46
 idif Ue xi dudx           1  0.12260066      3.03888321E-03   40.343987    
 Uenew xinew           2  1.42165208E-02  3.52382660E-04

  33   rms: 0.7405E-01   max: -.5466E+00   D at   47  2   RLX: 0.915
       a = -6.000      CL = -0.4142
      Cm = -0.0031     CD =  0.08793   =>   CDf =  0.00630    CDp =  0.08163

 Side 1 forced transition at x/c =  1.0000   75
 Side 2  free  transition at x/c =  0.3461   48

  34   rms: 0.5988E-01   max: 0.3076E+00   T at   48  2
       a = -6.000      CL = -0.4544
      Cm = -0.0020     CD =  0.08999   =>   CDf =  0.00610    CDp =  0.08389

 Side 1 forced transition at x/c =  1.0000   75
 Side 2  free  transition at x/c =  0.3386   47

  35   rms: 0.2387E-01   max: -.2158E+00   T at   47  2
       a = -6.000      CL = -0.4387
      Cm = -0.0041     CD =  0.08934   =>   CDf =  0.00594    CDp =  0.08340

 Side 1 forced transition at x/c =  1.0000   75
 Side 2  free  transition at x/c =  0.3415   47

  36   rms: 0.2178E-01   max: -.7664E-01   T at   47  2
       a = -6.000      CL = -0.4515
      Cm = -0.0056     CD =  0.08900   =>   CDf =  0.00598    CDp =  0.08302

 Side 1 forced transition at x/c =  1.0000   75
 Side 2  free  transition at x/c =  0.3454   48

  37   rms: 0.7871E-01   max: 0.3943E+00   T at   48  2
       a = -6.000      CL = -0.4635
      Cm = -0.0029     CD =  0.09228   =>   CDf =  0.00598    CDp =  0.08630

 Side 1 forced transition at x/c =  1.0000   75
 Side 2  free  transition at x/c =  0.3390   47

  38   rms: 0.4043E-01   max: -.1833E+00   T at   47  2
       a = -6.000      CL = -0.4416
      Cm = -0.0039     CD =  0.09034   =>   CDf =  0.00590    CDp =  0.08443

 Side 1 forced transition at x/c =  1.0000   75
 Side 2  free  transition at x/c =  0.3414   47

  39   rms: 0.1890E-01   max: -.9378E-01   T at   47  2
       a = -6.000      CL = -0.4510
      Cm = -0.0056     CD =  0.08915   =>   CDf =  0.00597    CDp =  0.08318

 Side 1 forced transition at x/c =  1.0000   75
 Side 2  free  transition at x/c =  0.3422   48

  40   rms: 0.1773E-01   max: -.7040E-01   T at   48  2
       a = -6.000      CL = -0.4435
      Cm = -0.0039     CD =  0.08930   =>   CDf =  0.00595    CDp =  0.08336

 Side 1 forced transition at x/c =  1.0000   75
 Side 2  free  transition at x/c =  0.3422   48

  41   rms: 0.2028E-01   max: -.1303E+00   T at   48  2
       a = -6.000      CL = -0.4326
      Cm = -0.0037     CD =  0.08769   =>   CDf =  0.00595    CDp =  0.08173

 Side 1 forced transition at x/c =  1.0000   75
 Side 2  free  transition at x/c =  0.3431   48

  42   rms: 0.6850E-02   max: -.3192E-01   D at   48  2
       a = -6.000      CL = -0.4347
      Cm = -0.0039     CD =  0.08784   =>   CDf =  0.00599    CDp =  0.08185

 Side 1 forced transition at x/c =  1.0000   75
 Side 2  free  transition at x/c =  0.3432   48

  43   rms: 0.3118E-02   max: 0.1708E-01   T at   48  2
       a = -6.000      CL = -0.4369
      Cm = -0.0039     CD =  0.08823   =>   CDf =  0.00598    CDp =  0.08224

 Side 1 forced transition at x/c =  1.0000   75
 Side 2  free  transition at x/c =  0.3430   48

  44   rms: 0.3517E-03   max: -.1502E-02   D at   48  2
       a = -6.000      CL = -0.4371
      Cm = -0.0039     CD =  0.08828   =>   CDf =  0.00598    CDp =  0.08231

 Side 1 forced transition at x/c =  1.0000   75
 Side 2  free  transition at x/c =  0.3430   48

  45   rms: 0.1457E-03   max: 0.8218E-03   T at   48  2
       a = -6.000      CL = -0.4372
      Cm = -0.0039     CD =  0.08830   =>   CDf =  0.00597    CDp =  0.08232

 Side 1 forced transition at x/c =  1.0000   75
 Side 2  free  transition at x/c =  0.3430   48

  46   rms: 0.1459E-04   max: 0.9006E-04   T at   48  2
       a = -6.000      CL = -0.4372
      Cm = -0.0039     CD =  0.08830   =>   CDf =  0.00597    CDp =  0.08233
 plradd ia,ip,cpol            8          74  5.04935207E-03

 Point added to stored polar  1
 Save file unspecified or not available
 Dump file unspecified or not available

.OPERva   c>  
.OPERva   c>  
.OPERva   c>   Calculating wake trajectory ...
 Calculating source influence matrix ...

 Solving BL system ...

 Side 1 forced transition at x/c =  1.0000   75
 Side 2  free  transition at x/c =  0.3430   48
 idif Ue xi dudx           1  0.14092633      3.97193432E-03   35.480530    
 Uenew xinew           2  3.78592275E-02  1.06704235E-03

   1   rms: 0.5635E+00   max: 0.4019E+01   T at   48  2   RLX: 0.373
       a = -7.000      CL = -0.5449
      Cm = -0.0173     CD =  0.09938   =>   CDf =  0.00599    CDp =  0.09339

 MRCHDU: Convergence failed at  72  side 2    Res =  0.1385E+01
 MRCHDU: Convergence failed at  73  side 2    Res =  0.2156E+01
 MRCHDU: Convergence failed at  74  side 2    Res =  0.5068E+01
 MRCHDU: Convergence failed at  75  side 2    Res =  0.1904E+02
 MRCHDU: Convergence failed at  76  side 2    Res =  0.1987E+02
 MRCHDU: Convergence failed at  77  side 2    Res =  0.1014E+02
 MRCHDU: Convergence failed at  78  side 2    Res =  0.1152E+02
 MRCHDU: Convergence failed at  79  side 2    Res =  0.7414E+01
 MRCHDU: Convergence failed at  80  side 2    Res =  0.5615E+01
 MRCHDU: Convergence failed at  81  side 2    Res =  0.4578E+01
 MRCHDU: Convergence failed at  82  side 2    Res =  0.3938E+01
 MRCHDU: Convergence failed at  83  side 2    Res =  0.3553E+01
 MRCHDU: Convergence failed at  84  side 2    Res =  0.3238E+01
 MRCHDU: Convergence failed at  85  side 2    Res =  0.3014E+01
 MRCHDU: Convergence failed at  86  side 2    Res =  0.2850E+01
 MRCHDU: Convergence failed at  87  side 2    Res =  0.2739E+01
 MRCHDU: Convergence failed at  88  side 2    Res =  0.2682E+01
 Side 1 forced transition at x/c =  1.0000   74
 Side 2  free  transition at x/c =  0.3181   47

   2   rms: 0.4135E+00   max: 0.2686E+01   T at   47  2   RLX: 0.534
       a = -7.000      CL = -0.4937
      Cm =  0.0144     CD =  0.08487   =>   CDf =  0.00575    CDp =  0.07912

 Side 1 forced transition at x/c =  1.0000   75
 Side 2  free  transition at x/c =  0.2941   45

   3   rms: 0.1242E+00   max: -.8026E+00   T at   45  2   RLX: 0.623
       a = -7.000      CL = -0.3900
      Cm = -0.0030     CD =  0.09269   =>   CDf =  0.00620    CDp =  0.08649

 Side 1 forced transition at x/c =  1.0000   75
 Side 2  free  transition at x/c =  0.2985   45

   4   rms: 0.4305E-01   max: -.4937E+00   D at   45  2
       a = -7.000      CL = -0.3466
      Cm = -0.0166     CD =  0.09277   =>   CDf =  0.00648    CDp =  0.08629

 Side 1 forced transition at x/c =  1.0000   75
 Side 2  free  transition at x/c =  0.3089   46

   5   rms: 0.1334E+00   max: -.9864E+00   T at   46  2   RLX: 0.507
       a = -7.000      CL = -0.3026
      Cm = -0.0208     CD =  0.09221   =>   CDf =  0.00652    CDp =  0.08570

 Side 1 forced transition at x/c =  1.0000   76
 Side 2  free  transition at x/c =  0.3108   45
 idif Ue xi dudx           1  0.12132672      3.03208828E-03   40.014244    
 Uenew xinew           2  1.38284322E-02  3.45587730E-04

   6   rms: 0.6488E-01   max: -.3467E+00   D at   45  2
       a = -7.000      CL = -0.3375
      Cm = -0.0180     CD =  0.08927   =>   CDf =  0.00676    CDp =  0.08251

 Side 1 forced transition at x/c =  1.0000   75
 Side 2  free  transition at x/c =  0.3116   46

   7   rms: 0.1028E+00   max: 0.7193E+00   T at   46  2
       a = -7.000      CL = -0.4295
      Cm = -0.0133     CD =  0.09639   =>   CDf =  0.00660    CDp =  0.08978

 Side 1 forced transition at x/c =  1.0000   75
 Side 2  free  transition at x/c =  0.2984   45

   8   rms: 0.7527E-01   max: -.3445E+00   D at   45  2
       a = -7.000      CL = -0.3849
      Cm = -0.0103     CD =  0.09963   =>   CDf =  0.00630    CDp =  0.09333

 Side 1 forced transition at x/c =  1.0000   75
 Side 2  free  transition at x/c =  0.3023   45

   9   rms: 0.1559E-01   max: -.2551E+00   T at   45  2
       a = -7.000      CL = -0.3789
      Cm = -0.0140     CD =  0.09489   =>   CDf =  0.00640    CDp =  0.08849

 Side 1 forced transition at x/c =  1.0000   75
 Side 2  free  transition at x/c =  0.3058   45

  10   rms: 0.1130E-01   max: -.5405E-01   D at   46  2
       a = -7.000      CL = -0.3853
      Cm = -0.0140     CD =  0.09486   =>   CDf =  0.00644    CDp =  0.08842

 Side 1 forced transition at x/c =  1.0000   75
 Side 2  free  transition at x/c =  0.3058   45

  11   rms: 0.2920E-02   max: 0.2449E-01   T at   45  2
       a = -7.000      CL = -0.3849
      Cm = -0.0137     CD =  0.09545   =>   CDf =  0.00642    CDp =  0.08904

 Side 1 forced transition at x/c =  1.0000   75
 Side 2  free  transition at x/c =  0.3055   45

  12   rms: 0.3594E-03   max: -.4148E-02   T at   45  2
       a = -7.000      CL = -0.3849
      Cm = -0.0137     CD =  0.09540   =>   CDf =  0.00641    CDp =  0.08899

 Side 1 forced transition at x/c =  1.0000   75
 Side 2  free  transition at x/c =  0.3056   45

  13   rms: 0.3483E-04   max: 0.3944E-03   T at   45  2
       a = -7.000      CL = -0.3849
      Cm = -0.0137     CD =  0.09540   =>   CDf =  0.00641    CDp =  0.08899
 plradd ia,ip,cpol            9          74  3.48139415E-03

 Point added to stored polar  1
 Save file unspecified or not available
 Dump file unspecified or not available

.OPERva   c>  
.OPERva   c>  
.OPERva   c>   Calculating wake trajectory ...
 Calculating source influence matrix ...

 Solving BL system ...

 Side 1 forced transition at x/c =  1.0000   75
 Side 2  free  transition at x/c =  0.3056   45

   1   rms: 0.1942E+00   max: 0.1196E+01   T at   45  2   RLX: 0.839
       a = -8.000      CL = -0.2298
      Cm = -0.0291     CD =  0.09584   =>   CDf =  0.00640    CDp =  0.08944

 Side 1 forced transition at x/c =  1.0000   76
 Side 2  free  transition at x/c =  0.2903   43
 idif Ue xi dudx           1  0.12812503      3.26859951E-03   39.198753    
 Uenew xinew           2  2.28175540E-02  5.82098961E-04

   2   rms: 0.1110E+00   max: -.4445E+00   D at   45  2
       a = -8.000      CL = -0.2775
      Cm = -0.0300     CD =  0.09288   =>   CDf =  0.00765    CDp =  0.08523

 Side 1 forced transition at x/c =  1.0000   75
 Side 2  free  transition at x/c =  0.2805   44

   3   rms: 0.6002E-01   max: 0.5611E+00   T at   44  2
       a = -8.000      CL = -0.3326
      Cm = -0.0259     CD =  0.10012   =>   CDf =  0.00720    CDp =  0.09291

 Side 1 forced transition at x/c =  1.0000   75
 Side 2  free  transition at x/c =  0.2725   43

   4   rms: 0.3888E-01   max: -.1623E+00   D at   44  2
       a = -8.000      CL = -0.3541
      Cm = -0.0256     CD =  0.10209   =>   CDf =  0.00694    CDp =  0.09514

 Side 1 forced transition at x/c =  1.0000   75
 Side 2  free  transition at x/c =  0.2723   43

   5   rms: 0.9023E-02   max: -.9999E-01   D at   43  2
       a = -8.000      CL = -0.3633
      Cm = -0.0240     CD =  0.10429   =>   CDf =  0.00682    CDp =  0.09747

 Side 1 forced transition at x/c =  1.0000   75
 Side 2  free  transition at x/c =  0.2723   43

   6   rms: 0.5608E-02   max: -.2668E-01   D at   43  2
       a = -8.000      CL = -0.3607
      Cm = -0.0241     CD =  0.10421   =>   CDf =  0.00677    CDp =  0.09744

 Side 1 forced transition at x/c =  1.0000   75
 Side 2  free  transition at x/c =  0.2727   43

   7   rms: 0.1079E-02   max: -.5687E-02   T at   43  2
       a = -8.000      CL = -0.3610
      Cm = -0.0242     CD =  0.10393   =>   CDf =  0.00678    CDp =  0.09714

 Side 1 forced transition at x/c =  1.0000   75
 Side 2  free  transition at x/c =  0.2727   43

   8   rms: 0.1299E-03   max: 0.7987E-03   T at   43  2
       a = -8.000      CL = -0.3610
      Cm = -0.0242     CD =  0.10396   =>   CDf =  0.00678    CDp =  0.09717

 Side 1 forced transition at x/c =  1.0000   75
 Side 2  free  transition at x/c =  0.2727   43

   9   rms: 0.9233E-05   max: -.6559E-04   T at   43  2
       a = -8.000      CL = -0.3610
      Cm = -0.0242     CD =  0.10395   =>   CDf =  0.00678    CDp =  0.09717
 plradd ia,ip,cpol           10          74  3.48139415E-03

 Point added to stored polar  1
 Save file unspecified or not available
 Dump file unspecified or not available

.OPERva   c>  
.OPERva   c>  
.OPERva   c>   Calculating wake trajectory ...
 Calculating source influence matrix ...

 Solving BL system ...

 Side 1 forced transition at x/c =  1.0000   75
 Side 2  free  transition at x/c =  0.2727   43

   1   rms: 0.2504E+00   max: 0.1197E+01   T at   43  2   RLX: 0.666
       a = -9.000      CL = -0.2281
      Cm = -0.0317     CD =  0.10206   =>   CDf =  0.00678    CDp =  0.09528

 Side 1 forced transition at x/c =  1.0000   75
 Side 2  free  transition at x/c =  0.2602   43

   2   rms: 0.1527E+00   max: 0.1205E+01   T at   43  2
       a = -9.000      CL = -0.2929
      Cm = -0.0364     CD =  0.10237   =>   CDf =  0.00773    CDp =  0.09464

 Side 1 forced transition at x/c =  1.0000   75
 Side 2  free  transition at x/c =  0.2532   42

   3   rms: 0.6106E-01   max: 0.5436E+00   D at   43  2
       a = -9.000      CL = -0.3187
      Cm = -0.0277     CD =  0.11432   =>   CDf =  0.00741    CDp =  0.10691

 Side 1 forced transition at x/c =  1.0000   75
 Side 2  free  transition at x/c =  0.2401   42

   4   rms: 0.1219E+00   max: -.8806E+00   T at   42  2   RLX: 0.568
       a = -9.000      CL = -0.2926
      Cm = -0.0264     CD =  0.10862   =>   CDf =  0.00726    CDp =  0.10137

 Side 1 forced transition at x/c =  1.0000   75
 Side 2  free  transition at x/c =  0.2427   42

   5   rms: 0.6661E-01   max: -.4663E+00   D at   42  2
       a = -9.000      CL = -0.2913
      Cm = -0.0315     CD =  0.10486   =>   CDf =  0.00738    CDp =  0.09748

 Side 1 forced transition at x/c =  1.0000   75
 Side 2  free  transition at x/c =  0.2470   42

   6   rms: 0.3830E-01   max: 0.1331E+00   T at   42  2
       a = -9.000      CL = -0.3250
      Cm = -0.0303     CD =  0.10964   =>   CDf =  0.00736    CDp =  0.10229

 Side 1 forced transition at x/c =  1.0000   75
 Side 2  free  transition at x/c =  0.2440   42

   7   rms: 0.7281E-02   max: -.5542E-01   D at   42  2
       a = -9.000      CL = -0.3262
      Cm = -0.0303     CD =  0.11023   =>   CDf =  0.00723    CDp =  0.10300

 Side 1 forced transition at x/c =  1.0000   75
 Side 2  free  transition at x/c =  0.2443   42

   8   rms: 0.3098E-02   max: 0.2280E-01   T at   42  2
       a = -9.000      CL = -0.3289
      Cm = -0.0302     CD =  0.11074   =>   CDf =  0.00721    CDp =  0.10354

 Side 1 forced transition at x/c =  1.0000   75
 Side 2  free  transition at x/c =  0.2440   42

   9   rms: 0.1469E-03   max: 0.9474E-03   C at   75  1
       a = -9.000      CL = -0.3289
      Cm = -0.0301     CD =  0.11079   =>   CDf =  0.00719    CDp =  0.10360

 Side 1 forced transition at x/c =  1.0000   75
 Side 2  free  transition at x/c =  0.2440   42

  10   rms: 0.4633E-04   max: 0.3567E-03   T at   42  2
       a = -9.000      CL = -0.3289
      Cm = -0.0301     CD =  0.11080   =>   CDf =  0.00719    CDp =  0.10360
 plradd ia,ip,cpol           11          74  3.48139415E-03

 Point added to stored polar  1
 Save file unspecified or not available
 Dump file unspecified or not available

.OPERva   c>  
.OPERva   c>  
.OPERva   c>   Calculating wake trajectory ...
 Calculating source influence matrix ...

 Solving BL system ...

 Side 1 forced transition at x/c =  1.0000   75
 Side 2  free  transition at x/c =  0.2440   42
 idif Ue xi dudx           1  0.17708953      5.25140762E-03   33.722298    
 Uenew xinew           2  7.91298971E-02  2.34651566E-03

   1   rms: 0.2415E+00   max: 0.2775E+01   T at   42  2   RLX: 0.541
       a =-10.000      CL = -0.3890
      Cm = -0.0343     CD =  0.12110   =>   CDf =  0.00721    CDp =  0.11390

 Side 1 forced transition at x/c =  1.0000   74
 Side 2  free  transition at x/c =  0.2261   42

   2   rms: 0.1313E+00   max: 0.1264E+01   T at   42  2
       a =-10.000      CL = -0.3524
      Cm = -0.0331     CD =  0.13138   =>   CDf =  0.00708    CDp =  0.12429

 Side 1 forced transition at x/c =  1.0000   74
 Side 2  free  transition at x/c =  0.2175   41

   3   rms: 0.6500E-01   max: -.2656E+00   D at   41  2
       a =-10.000      CL = -0.3311
      Cm = -0.0309     CD =  0.12656   =>   CDf =  0.00735    CDp =  0.11921

 Side 1 forced transition at x/c =  1.0000   74
 Side 2  free  transition at x/c =  0.2170   41

   4   rms: 0.9326E-02   max: -.8130E-01   D at   41  2
       a =-10.000      CL = -0.3272
      Cm = -0.0322     CD =  0.12139   =>   CDf =  0.00745    CDp =  0.11394

 Side 1 forced transition at x/c =  1.0000   74
 Side 2  free  transition at x/c =  0.2184   41

   5   rms: 0.7923E-03   max: -.3136E-02   D at   99  2
       a =-10.000      CL = -0.3276
      Cm = -0.0322     CD =  0.12107   =>   CDf =  0.00747    CDp =  0.11359

 Side 1 forced transition at x/c =  1.0000   74
 Side 2  free  transition at x/c =  0.2184   41

   6   rms: 0.1143E-03   max: 0.1138E-02   T at   41  2
       a =-10.000      CL = -0.3277
      Cm = -0.0322     CD =  0.12112   =>   CDf =  0.00747    CDp =  0.11365

 Side 1 forced transition at x/c =  1.0000   74
 Side 2  free  transition at x/c =  0.2184   41

   7   rms: 0.6918E-05   max: -.7572E-04   T at   41  2
       a =-10.000      CL = -0.3277
      Cm = -0.0322     CD =  0.12112   =>   CDf =  0.00747    CDp =  0.11365
 plradd ia,ip,cpol           12          73  3.48139415E-03

 Point added to stored polar  1
 Save file unspecified or not available
 Dump file unspecified or not available

.OPERva   c>  
.OPERva   c>  
.OPERva   c>  
        airfoil                    Re           Mach       Ncrit  XtripT  XtripB     file
       ------------------------  ------------  ----------  -----  ------  ------    -------------------
 >  1  NACA 4412 Airfoil M=4.0%  5.000e4       0.000        9.00   1.000   1.000    

Enter polar output filename   s>  
.OPERva   c>  
 ==============================================================
 Polar  1
  
       XFOIL         Version 6.99
  
 Calculated polar for: NACA 4412 Airfoil M=4.0% P=40.0% T=12.0%        
  
 1 1 Reynolds number fixed          Mach number fixed         
  
 xtrf =   1.000 (top)        1.000 (bottom)  
 Mach =   0.000     Re =     0.050 e 6     Ncrit =   9.000
  
   alpha    CL        CD       CDp       CM     Top_Xtr  Bot_Xtr
  ------ -------- --------- --------- -------- -------- --------
   2.000   0.4236   0.04034   0.02982  -0.0874   0.8239   1.0000
   1.000   0.3102   0.03667   0.02654  -0.0835   0.8688   1.0000
   0.000   0.1776   0.03320   0.02386  -0.0759   0.9169   1.0000
  -1.000   0.0307   0.03259   0.02282  -0.0678   0.9659   0.4978
  -2.000  -0.1441   0.03357   0.02334  -0.0532   1.0000   0.2827
  -3.000  -0.2345   0.03629   0.02651  -0.0522   1.0000   0.2208
  -4.000  -0.3309   0.04319   0.03458  -0.0491   1.0000   0.1885
  -6.000  -0.4372   0.08830   0.08233  -0.0039   1.0000   0.3430
  -7.000  -0.3849   0.09540   0.08899  -0.0137   1.0000   0.3056
  -8.000  -0.3610   0.10395   0.09717  -0.0242   1.0000   0.2727
  -9.000  -0.3289   0.11080   0.10360  -0.0301   1.0000   0.2440
 -10.000  -0.3277   0.12112   0.11365  -0.0322   1.0000   0.2184

.OPERva   c>  
 XFOIL   c>  